
BEGIN OPTIONS
  SAVE_FLOWS
END OPTIONS

BEGIN DIMENSIONS
  MAXBOUND 127
END DIMENSIONS

BEGIN PERIOD 1
      4725            0
      5239            0
      5255     -35354.4
      5302     -35354.4
      5318     -35354.4
      5688     -21520.1
      5790     -53031.6
      5857            0
      5967     -36891.6
      6286            0
      6453     -53031.6
      6659     -35354.4
      8246       -13281
      8422       -13281
      7093     -35354.4
      8607            0
      9275            0
      8467       -13281
      8451            0
      9314     -15494.5
      9918            0
      7268     -35354.4
      9323            0
      9142            0
      8975            0
      9094            0
      7371     -13834.3
     11489            0
     11495            0
     12912            0
     13471     -25476.7
     13475     -25476.7
     13473     -25476.7
     13451     -25476.7
     13449     -25476.7
     13443     -25476.7
     13432     -45858.1
     13354     -45858.1
     13344     -45858.1
     15456            0
     15414     -8846.09
     15468            0
     15449            0
     16978            0
     16972            0
     16959     -29722.9
     16818     -29722.9
     16812     -29722.9
     17411     -29722.9
     17398     -29722.9
     17392     -29722.9
     17320     -29722.9
     17318     -29722.9
     17313       -15923
     17764     -42461.2
     17811            0
     17802     -42461.2
     11364            0
     11399       -13281
     11744     -26561.9
     11928       -13281
     11710            0
     11754       -13281
     10190     -1537.15
      9812     -1537.15
     10206     -1537.15
      9809            0
      9823     -1537.15
      9792     -1537.15
      9978     -35354.4
      9994            0
     10228            0
      9986     -15494.5
     21133            0
     21148            0
     20612            0
     22931      -1265.5
     23884     -8166.36
     25855            0
     27397     -69.6101
     28245     -5489.64
     28290     -5489.64
     28806     -5489.64
     29002     -5489.64
     29038     -5489.64
     29016     -5489.64
     29014     -5489.64
     29017     -5489.64
     29023     -5489.64
     29019     -5489.64
     30456     -3264.36
     30457     -3264.36
     30932     -3264.36
     30931     -3264.36
     30996     -3264.36
     30997     -3264.36
     31189     -3264.36
     31187     -3264.36
     25977     -3912.01
     25978     -3912.01
     25972     -3912.01
     33878     -5453.74
     33679     -5453.74
     35802     -1974.62
     35791     -1974.62
     35791     -1974.62
     35790     -1974.62
     35808     -1974.62
     37205     -4301.97
     37217     -4301.97
     37193     -4301.97
     37197     -4301.97
     39042     -229.591
     40661     -6810.07
     40664     -6810.07
     40666     -6810.07
     40665     -6810.07
     40646     -6810.07
     40647     -6810.07
     40647     -6810.07
     40672     -6810.07
     42084            0
     42084     -2.54423
     42084     -6498.16
     41493        -1369
     42084     -8177.36
     42084            0
END PERIOD
BEGIN PERIOD 2
      4725            0
      5239            0
      5255     -28271.7
      5302     -41122.5
      5318     -19276.2
      5688            0
      5790     -61683.7
      5857            0
      5967     -41122.5
      6286            0
      6453     -61683.7
      6659     -41122.5
      8246     -14804.1
      8422            0
      7093     -17991.1
      8607            0
      9275            0
      8467     -14804.1
      8451            0
      9314     -17271.4
      9918            0
      7268     -23988.1
      9323            0
      9142            0
      8975     -14804.1
      9094            0
      7371     -61683.7
     11489            0
     11495            0
     12912            0
     13471     -24306.6
     13475     -24306.6
     13473            0
     13451     -24306.6
     13449     -24306.6
     13443     -24306.6
     13432     -43751.9
     13354     -43751.9
     13344     -43751.9
     15456            0
     15414     -40511.1
     15468            0
     15449            0
     16978            0
     16972            0
     16959     -28357.7
     16818     -28357.7
     16812     -28357.7
     17411     -28357.7
     17398     -28357.7
     17392     -28357.7
     17320     -28357.7
     17318     -28357.7
     17313     -40511.1
     17764     -40511.1
     17811            0
     17802     -40511.1
     11364            0
     11399     -14804.1
     11744     -29608.2
     11928     -14804.1
     11710            0
     11754     -14804.1
     10190            0
      9812            0
     10206            0
      9809            0
      9823            0
      9792            0
      9978     -41122.5
      9994            0
     10228            0
      9986     -17271.4
     21133            0
     21148            0
     20612            0
     22931      -1265.5
     23884     -8166.36
     25855            0
     27397     -69.6101
     28245     -5489.64
     28290     -5489.64
     28806     -5489.64
     29002     -5489.64
     29038     -5489.64
     29016     -5489.64
     29014     -5489.64
     29017     -5489.64
     29023     -5489.64
     29019     -5489.64
     30456     -3264.36
     30457     -3264.36
     30932     -3264.36
     30931     -3264.36
     30996     -3264.36
     30997     -3264.36
     31189     -3264.36
     31187     -3264.36
     25977     -3912.01
     25978     -3912.01
     25972     -3912.01
     33878     -5453.74
     33679     -5453.74
     35802     -1974.62
     35791     -1974.62
     35791     -1974.62
     35790     -1974.62
     35808     -1974.62
     37205     -4301.97
     37217     -4301.97
     37193     -4301.97
     37197     -4301.97
     39042     -229.591
     40661     -6810.07
     40664     -6810.07
     40666     -6810.07
     40665     -6810.07
     40646     -6810.07
     40647     -6810.07
     40647     -6810.07
     40672     -6810.07
     42084            0
     42084     -2.54423
     42084     -6498.16
     41493        -1369
     42084     -8177.36
     42084            0
END PERIOD
BEGIN PERIOD 3
      4725            0
      5239            0
      5255            0
      5302     -39328.6
      5318     -58992.9
      5688            0
      5790     -58992.9
      5857            0
      5967     -39328.6
      6286            0
      6453     -58992.9
      6659     -39328.6
      8246     -14158.3
      8422            0
      7093     -58992.9
      8607            0
      9275            0
      8467     -14158.3
      8451            0
      9314       -16518
      9918            0
      7268     -39328.6
      9323            0
      9142            0
      8975     -14158.3
      9094            0
      7371     -58992.9
     11489            0
     11495            0
     12912            0
     13471       -23016
     13475       -23016
     13473            0
     13451       -23016
     13449       -23016
     13443       -23016
     13432     -41428.8
     13354     -41428.8
     13344     -41428.8
     15456            0
     15414       -38360
     15468            0
     15449            0
     16978            0
     16972            0
     16959       -26852
     16818       -26852
     16812       -26852
     17411       -26852
     17398       -26852
     17392       -26852
     17320       -26852
     17318       -26852
     17313       -38360
     17764       -38360
     17811            0
     17802       -38360
     11364            0
     11399     -14158.3
     11744     -28316.6
     11928     -14158.3
     11710            0
     11754     -14158.3
     10190            0
      9812            0
     10206            0
      9809            0
      9823            0
      9792            0
      9978     -39328.6
      9994            0
     10228            0
      9986       -16518
     21133            0
     21148            0
     20612            0
     22931      -1265.5
     23884     -8166.36
     25855            0
     27397     -69.6101
     28245     -5489.64
     28290     -5489.64
     28806     -5489.64
     29002     -5489.64
     29038     -5489.64
     29016     -5489.64
     29014     -5489.64
     29017     -5489.64
     29023     -5489.64
     29019     -5489.64
     30456     -3264.36
     30457     -3264.36
     30932     -3264.36
     30931     -3264.36
     30996     -3264.36
     30997     -3264.36
     31189     -3264.36
     31187     -3264.36
     25977     -3912.01
     25978     -3912.01
     25972     -3912.01
     33878     -5453.74
     33679     -5453.74
     35802     -1974.62
     35791     -1974.62
     35791     -1974.62
     35790     -1974.62
     35808     -1974.62
     37205     -4301.97
     37217     -4301.97
     37193     -4301.97
     37197     -4301.97
     39042     -229.591
     40661     -6810.07
     40664     -6810.07
     40666     -6810.07
     40665     -6810.07
     40646     -6810.07
     40647     -6810.07
     40647     -6810.07
     40672     -6810.07
     42084            0
     42084     -2.54423
     42084     -6498.16
     41493        -1369
     42084     -8177.36
     42084            0
END PERIOD
BEGIN PERIOD 4
      4725     -12342.5
      5239            0
      5255     -12342.5
      5302       -39496
      5318     -40730.2
      5688            0
      5790       -59244
      5857            0
      5967       -39496
      6286     -18513.7
      6453     -40730.2
      6659     -40730.2
      8246     -14218.6
      8422     -14218.6
      7093     -40730.2
      8607            0
      9275            0
      8467     -14218.6
      8451     -4147.08
      9314     -11750.1
      9918            0
      7268       -39496
      9323            0
      9142            0
      8975            0
      9094            0
      7371     -40730.2
     11489            0
     11495            0
     12912            0
     13471     -23246.8
     13475     -23246.8
     13473            0
     13451     -23246.8
     13449     -23246.8
     13443     -23246.8
     13432     -41844.3
     13354     -41844.3
     13344     -41844.3
     15456            0
     15414     -13722.1
     15468            0
     15449            0
     16978            0
     16972            0
     16959     -27121.3
     16818     -27121.3
     16812     -27121.3
     17411     -27121.3
     17398     -27121.3
     17392     -27121.3
     17320     -27121.3
     17318     -27121.3
     17313     -38744.7
     17764     -38744.7
     17811            0
     17802     -38744.7
     11364            0
     11399     -14218.6
     11744     -28437.1
     11928      -5924.4
     11710            0
     11754     -14218.6
     10190            0
      9812            0
     10206            0
      9809            0
      9823            0
      9792            0
      9978       -39496
      9994            0
     10228            0
      9986     -16588.3
     21133            0
     21148            0
     20612            0
     22931      -1265.5
     23884     -8166.36
     25855            0
     27397     -69.6101
     28245     -5489.64
     28290     -5489.64
     28806     -5489.64
     29002     -5489.64
     29038     -5489.64
     29016     -5489.64
     29014     -5489.64
     29017     -5489.64
     29023     -5489.64
     29019     -5489.64
     30456     -3264.36
     30457     -3264.36
     30932     -3264.36
     30931     -3264.36
     30996     -3264.36
     30997     -3264.36
     31189     -3264.36
     31187     -3264.36
     25977     -3912.01
     25978     -3912.01
     25972     -3912.01
     33878     -5453.74
     33679     -5453.74
     35802     -1974.62
     35791     -1974.62
     35791     -1974.62
     35790     -1974.62
     35808     -1974.62
     37205     -4301.97
     37217     -4301.97
     37193     -4301.97
     37197     -4301.97
     39042     -229.591
     40661     -6810.07
     40664     -6810.07
     40666     -6810.07
     40665     -6810.07
     40646     -6810.07
     40647     -6810.07
     40647     -6810.07
     40672     -6810.07
     42084            0
     42084     -2.54423
     42084     -6498.16
     41493        -1369
     42084     -8177.36
     42084            0
END PERIOD
BEGIN PERIOD 5
      4725     -38265.6
      5239            0
      5255     -38265.6
      5302     -38265.6
      5318     -38265.6
      5688     -20727.2
      5790     -57398.4
      5857            0
      5967     -16741.2
      6286     -57398.4
      6453     -38265.6
      6659     -25111.8
      8246     -13775.6
      8422     -13775.6
      7093            0
      8607            0
      9275            0
      8467     -13775.6
      8451            0
      9314     -16071.5
      9918            0
      7268     -38265.6
      9323            0
      9142            0
      8975            0
      9094            0
      7371            0
     11489     -7748.78
     11495     -9255.49
     12912            0
     13471     -22930.4
     13475     -22930.4
     13473     -18153.2
     13451     -22930.4
     13449     -22930.4
     13443     -22930.4
     13432     -41274.7
     13354     -41274.7
     13344     -41274.7
     15456            0
     15414            0
     15468            0
     15449            0
     16978            0
     16972            0
     16959     -26752.1
     16818     -26752.1
     16812     -26752.1
     17411     -26752.1
     17398     -26752.1
     17392     -26752.1
     17320     -26752.1
     17318     -26752.1
     17313     -38217.3
     17764     -38217.3
     17811            0
     17802     -30255.4
     11364     -7748.78
     11399     -13775.6
     11744     -27551.2
     11928     -7748.78
     11710     -7748.78
     11754     -13775.6
     10190            0
      9812            0
     10206            0
      9809            0
      9823            0
      9792            0
      9978     -38265.6
      9994            0
     10228            0
      9986     -16071.5
     21133            0
     21148            0
     20612            0
     22931      -1265.5
     23884     -8166.36
     25855            0
     27397     -69.6101
     28245     -5489.64
     28290     -5489.64
     28806     -5489.64
     29002     -5489.64
     29038     -5489.64
     29016     -5489.64
     29014     -5489.64
     29017     -5489.64
     29023     -5489.64
     29019     -5489.64
     30456     -3264.36
     30457     -3264.36
     30932     -3264.36
     30931     -3264.36
     30996     -3264.36
     30997     -3264.36
     31189     -3264.36
     31187     -3264.36
     25977     -3912.01
     25978     -3912.01
     25972     -3912.01
     33878     -5453.74
     33679     -5453.74
     35802     -1974.62
     35791     -1974.62
     35791     -1974.62
     35790     -1974.62
     35808     -1974.62
     37205     -4301.97
     37217     -4301.97
     37193     -4301.97
     37197     -4301.97
     39042     -229.591
     40661     -6810.07
     40664     -6810.07
     40666     -6810.07
     40665     -6810.07
     40646     -6810.07
     40647     -6810.07
     40647     -6810.07
     40672     -6810.07
     42084            0
     42084     -2.54423
     42084     -6498.16
     41493        -1369
     42084     -8177.36
     42084            0
END PERIOD
BEGIN PERIOD 6
      4725     -37878.1
      5239            0
      5255     -37878.1
      5302     -37878.1
      5318     -37878.1
      5688     -20517.3
      5790     -56817.2
      5857            0
      5967            0
      6286     -56817.2
      6453     -37878.1
      6659            0
      8246     -13636.1
      8422     -13636.1
      7093            0
      8607            0
      9275            0
      8467     -13636.1
      8451            0
      9314     -15908.8
      9918            0
      7268     -37878.1
      9323            0
      9142            0
      8975            0
      9094            0
      7371            0
     11489     -13636.1
     11495     -16287.6
     12912            0
     13471     -25252.8
     13475     -25252.8
     13473     -25252.8
     13451     -25252.8
     13449     -25252.8
     13443     -25252.8
     13432     -45455.1
     13354     -45455.1
     13344     -45455.1
     15456     -20167.2
     15414     -20167.2
     15468            0
     15449            0
     16978            0
     16972            0
     16959     -16572.2
     16818     -29461.6
     16812     -29461.6
     17411     -29461.6
     17398     -29461.6
     17392     -29461.6
     17320     -29461.6
     17318     -29461.6
     17313       -42088
     17764       -42088
     17811            0
     17802     -25428.2
     11364     -13636.1
     11399     -13636.1
     11744     -27272.3
     11928     -13636.1
     11710     -13636.1
     11754     -13636.1
     10190            0
      9812            0
     10206            0
      9809            0
      9823            0
      9792            0
      9978     -37878.1
      9994            0
     10228            0
      9986     -15908.8
     21133            0
     21148            0
     20612            0
     22931      -1265.5
     23884     -8166.36
     25855            0
     27397     -69.6101
     28245     -5489.64
     28290     -5489.64
     28806     -5489.64
     29002     -5489.64
     29038     -5489.64
     29016     -5489.64
     29014     -5489.64
     29017     -5489.64
     29023     -5489.64
     29019     -5489.64
     30456     -3264.36
     30457     -3264.36
     30932     -3264.36
     30931     -3264.36
     30996     -3264.36
     30997     -3264.36
     31189     -3264.36
     31187     -3264.36
     25977     -3912.01
     25978     -3912.01
     25972     -3912.01
     33878     -5453.74
     33679     -5453.74
     35802     -1974.62
     35791     -1974.62
     35791     -1974.62
     35790     -1974.62
     35808     -1974.62
     37205     -4301.97
     37217     -4301.97
     37193     -4301.97
     37197     -4301.97
     39042     -229.591
     40661     -6810.07
     40664     -6810.07
     40666     -6810.07
     40665     -6810.07
     40646     -6810.07
     40647     -6810.07
     40647     -6810.07
     40672     -6810.07
     42084            0
     42084     -2.54423
     42084     -6498.16
     41493        -1369
     42084     -8177.36
     42084            0
END PERIOD
BEGIN PERIOD 7
      4725     -38118.2
      5239            0
      5255     -38118.2
      5302     -38118.2
      5318     -38118.2
      5688     -20647.3
      5790     -57177.3
      5857            0
      5967     -3970.64
      6286     -57177.3
      6453     -38118.2
      6659            0
      8246     -13722.5
      8422     -13722.5
      7093            0
      8607            0
      9275            0
      8467     -13722.5
      8451            0
      9314     -16009.6
      9918            0
      7268     -34147.5
      9323            0
      9142            0
      8975            0
      9094            0
      7371            0
     11489     -13722.5
     11495     -16390.8
     12912            0
     13471     -23987.7
     13475     -23987.7
     13473     -23987.7
     13451     -23987.7
     13449     -23987.7
     13443     -23987.7
     13432     -43177.8
     13354     -43177.8
     13344     -43177.8
     15456     -39979.5
     15414     -39979.5
     15468            0
     15449            0
     16978            0
     16972            0
     16959            0
     16818     -27985.6
     16812     -27985.6
     17411     -27985.6
     17398     -27985.6
     17392     -27985.6
     17320     -27985.6
     17318     -27985.6
     17313     -19989.7
     17764     -39979.5
     17811            0
     17802     -39979.5
     11364     -13722.5
     11399     -13722.5
     11744     -27445.1
     11928     -13722.5
     11710     -13722.5
     11754     -13722.5
     10190            0
      9812            0
     10206            0
      9809            0
      9823            0
      9792            0
      9978     -38118.2
      9994            0
     10228            0
      9986     -16009.6
     21133            0
     21148            0
     20612            0
     22931      -1265.5
     23884     -8166.36
     25855            0
     27397     -69.6101
     28245     -5489.64
     28290     -5489.64
     28806     -5489.64
     29002     -5489.64
     29038     -5489.64
     29016     -5489.64
     29014     -5489.64
     29017     -5489.64
     29023     -5489.64
     29019     -5489.64
     30456     -3264.36
     30457     -3264.36
     30932     -3264.36
     30931     -3264.36
     30996     -3264.36
     30997     -3264.36
     31189     -3264.36
     31187     -3264.36
     25977     -3912.01
     25978     -3912.01
     25972     -3912.01
     33878     -5453.74
     33679     -5453.74
     35802     -1974.62
     35791     -1974.62
     35791     -1974.62
     35790     -1974.62
     35808     -1974.62
     37205     -4301.97
     37217     -4301.97
     37193     -4301.97
     37197     -4301.97
     39042     -229.591
     40661     -6810.07
     40664     -6810.07
     40666     -6810.07
     40665     -6810.07
     40646     -6810.07
     40647     -6810.07
     40647     -6810.07
     40672     -6810.07
     42084            0
     42084     -2.54423
     42084     -6498.16
     41493        -1369
     42084     -8177.36
     42084            0
END PERIOD
BEGIN PERIOD 8
      4725       -38494
      5239            0
      5255       -38494
      5302     -28870.5
      5318       -38494
      5688            0
      5790       -57741
      5857            0
      5967            0
      6286       -57741
      6453       -38494
      6659            0
      8246     -13857.8
      8422     -13857.8
      7093            0
      8607            0
      9275            0
      8467     -13857.8
      8451            0
      9314     -16167.5
      9918            0
      7268       -38494
      9323            0
      9142            0
      8975            0
      9094            0
      7371            0
     11489     -13857.8
     11495     -16552.4
     12912            0
     13471     -25194.7
     13475     -25194.7
     13473     -25194.7
     13451     -25194.7
     13449     -25194.7
     13443     -25194.7
     13432     -45350.5
     13354     -45350.5
     13344     -45350.5
     15456     -41991.2
     15414     -41991.2
     15468            0
     15449            0
     16978            0
     16972            0
     16959            0
     16818     -29393.8
     16812     -29393.8
     17411     -29393.8
     17398     -29393.8
     17392     -29393.8
     17320     -29393.8
     17318     -29393.8
     17313     -41991.2
     17764     -22745.2
     17811            0
     17802            0
     11364     -13857.8
     11399     -13857.8
     11744     -27715.7
     11928     -13857.8
     11710     -13857.8
     11754     -13857.8
     10190            0
      9812            0
     10206            0
      9809            0
      9823            0
      9792            0
      9978       -38494
      9994            0
     10228            0
      9986     -16167.5
     21133            0
     21148            0
     20612            0
     22931      -1265.5
     23884     -8166.36
     25855            0
     27397     -69.6101
     28245     -5489.64
     28290     -5489.64
     28806     -5489.64
     29002     -5489.64
     29038     -5489.64
     29016     -5489.64
     29014     -5489.64
     29017     -5489.64
     29023     -5489.64
     29019     -5489.64
     30456     -3264.36
     30457     -3264.36
     30932     -3264.36
     30931     -3264.36
     30996     -3264.36
     30997     -3264.36
     31189     -3264.36
     31187     -3264.36
     25977     -3912.01
     25978     -3912.01
     25972     -3912.01
     33878     -5453.74
     33679     -5453.74
     35802     -1974.62
     35791     -1974.62
     35791     -1974.62
     35790     -1974.62
     35808     -1974.62
     37205     -4301.97
     37217     -4301.97
     37193     -4301.97
     37197     -4301.97
     39042     -229.591
     40661     -6810.07
     40664     -6810.07
     40666     -6810.07
     40665     -6810.07
     40646     -6810.07
     40647     -6810.07
     40647     -6810.07
     40672     -6810.07
     42084            0
     42084     -2.54423
     42084     -6498.16
     41493        -1369
     42084     -8177.36
     42084            0
END PERIOD
BEGIN PERIOD 9
      4725     -37168.9
      5239            0
      5255     -37168.9
      5302     -55753.4
      5318     -37168.9
      5688            0
      5790     -55753.4
      5857            0
      5967            0
      6286     -55753.4
      6453     -37168.9
      6659            0
      8246     -13380.8
      8422     -13380.8
      7093            0
      8607            0
      9275            0
      8467     -13380.8
      8451            0
      9314     -15610.9
      9918     -13938.3
      7268     -37168.9
      9323            0
      9142            0
      8975            0
      9094            0
      7371            0
     11489     -13380.8
     11495     -15982.6
     12912            0
     13471     -25507.7
     13475     -25507.7
     13473     -25507.7
     13451     -25507.7
     13449     -25507.7
     13443     -25507.7
     13432     -45913.8
     13354     -45913.8
     13344     -45913.8
     15456     -35427.3
     15414     -35427.3
     15468            0
     15449            0
     16978            0
     16972            0
     16959            0
     16818       -29759
     16812       -29759
     17411       -29759
     17398       -29759
     17392       -29759
     17320       -29759
     17318       -29759
     17313     -42512.8
     17764     -22142.1
     17811            0
     17802     -7085.47
     11364     -13380.8
     11399     -13380.8
     11744     -10035.6
     11928     -13380.8
     11710     -13380.8
     11754     -13380.8
     10190            0
      9812            0
     10206            0
      9809            0
      9823            0
      9792            0
      9978     -37168.9
      9994            0
     10228            0
      9986     -15610.9
     21133            0
     21148            0
     20612            0
     22931      -1265.5
     23884     -8166.36
     25855            0
     27397     -69.6101
     28245     -5489.64
     28290     -5489.64
     28806     -5489.64
     29002     -5489.64
     29038     -5489.64
     29016     -5489.64
     29014     -5489.64
     29017     -5489.64
     29023     -5489.64
     29019     -5489.64
     30456     -3264.36
     30457     -3264.36
     30932     -3264.36
     30931     -3264.36
     30996     -3264.36
     30997     -3264.36
     31189     -3264.36
     31187     -3264.36
     25977     -3912.01
     25978     -3912.01
     25972     -3912.01
     33878     -5453.74
     33679     -5453.74
     35802     -1974.62
     35791     -1974.62
     35791     -1974.62
     35790     -1974.62
     35808     -1974.62
     37205     -4301.97
     37217     -4301.97
     37193     -4301.97
     37197     -4301.97
     39042     -229.591
     40661     -6810.07
     40664     -6810.07
     40666     -6810.07
     40665     -6810.07
     40646     -6810.07
     40647     -6810.07
     40647     -6810.07
     40672     -6810.07
     42084            0
     42084     -2.54423
     42084     -6498.16
     41493        -1369
     42084     -8177.36
     42084            0
END PERIOD
BEGIN PERIOD 10
      4725     -37290.6
      5239            0
      5255     -37290.6
      5302     -22141.3
      5318     -37290.6
      5688       -20976
      5790     -55935.9
      5857            0
      5967     -17091.5
      6286     -23306.6
      6453     -37290.6
      6659            0
      8246     -13424.6
      8422     -13424.6
      7093            0
      8607     -3356.15
      9275     -3356.15
      8467     -13424.6
      8451     -3356.15
      9314       -15662
      9918     -22374.4
      7268     -37290.6
      9323     -3356.15
      9142     -3356.15
      8975     -3356.15
      9094     -3356.15
      7371            0
     11489     -10068.5
     11495     -12026.2
     12912            0
     13471       -25271
     13475       -25271
     13473     -20532.7
     13451       -25271
     13449       -25271
     13443       -25271
     13432     -45487.8
     13354     -45487.8
     13344     -45487.8
     15456            0
     15414     -21936.6
     15468            0
     15449            0