BEGIN OPTIONS
  DEV_OLDSTORAGEFORMULATION
END OPTIONS

BEGIN GRIDDATA
  ICONVERT
    CONSTANT 1
  SS
    CONSTANT 1.
  SY
    CONSTANT 0.2    
END GRIDDATA
