BEGIN OPTIONS
  #I2KN
  PRINT_INPUT
  #PRINT_FLOWS
END OPTIONS

BEGIN DIMENSIONS
  NUMGNC 48780
  NUMALPHAJ 2
END DIMENSIONS

BEGIN GNCDATA
    65 82859 83013 83014  0.166666666667 0.166666666667 
    65 82862 66 82862  0.25 0.0 
    65 83013 82859 82862  0.166666666667 0.166666666667 
    65 83014 111 83014  0.25 0.0 
    66 82863 65 82863  0.25 0.0 
    66 82866 67 82866  0.25 0.0 
    67 82867 66 82867  0.25 0.0 
    67 82870 68 82870  0.25 0.0 
    68 82871 67 82871  0.25 0.0 
    68 82874 69 82874  0.25 0.0 
    69 82875 68 82875  0.25 0.0 
    69 82878 70 82878  0.25 0.0 
    70 82879 69 82879  0.25 0.0 
    70 82882 71 82882  0.25 0.0 
    71 82883 70 82883  0.25 0.0 
    71 82886 72 82886  0.25 0.0 
    72 82887 71 82887  0.25 0.0 
    72 82890 73 82890  0.25 0.0 
    73 82891 72 82891  0.25 0.0 
    73 82892 74 82892  0.25 0.0 
    74 82893 73 82893  0.25 0.0 
    74 82894 75 82894  0.25 0.0 
    75 82895 74 82895  0.25 0.0 
    75 82896 76 82896  0.25 0.0 
    76 82897 75 82897  0.25 0.0 
    76 82898 83015 83016  0.166666666667 0.166666666667 
    76 83015 122 83015  0.25 0.0 
    76 83016 82897 82898  0.166666666667 0.166666666667 
    100 82971 83080 83081  0.166666666667 0.166666666667 
    100 82974 101 82974  0.25 0.0 
    100 83080 82971 82974  0.166666666667 0.166666666667 
    100 83081 83195 83196  0.166666666667 0.166666666667 
    100 83195 83080 83081  0.166666666667 0.166666666667 
    100 83196 101 83196  0.25 0.0 
    101 82975 100 82975  0.25 0.0 
    101 82978 102 82978  0.25 0.0 
    102 82979 101 82979  0.25 0.0 
    102 82982 103 82982  0.25 0.0 
    103 82983 102 82983  0.25 0.0 
    103 82986 104 82986  0.25 0.0 
    104 82987 103 82987  0.25 0.0 
    104 82990 105 82990  0.25 0.0 
    105 82991 104 82991  0.25 0.0 
    105 82994 106 82994  0.25 0.0 
    106 82995 105 82995  0.25 0.0 
    106 82998 107 82998  0.25 0.0 
    107 82999 106 82999  0.25 0.0 
    107 83002 108 83002  0.25 0.0 
    108 83003 107 83003  0.25 0.0 
    108 83006 109 83006  0.25 0.0 
    109 83007 108 83007  0.25 0.0 
    109 83010 110 83010  0.25 0.0 
    110 83011 109 83011  0.25 0.0 
    110 83014 111 83014  0.25 0.0 
    123 83015 122 83015  0.25 0.0 
    123 83018 83082 83083  0.166666666667 0.166666666667 
    123 83082 167 83082  0.25 0.0 
    123 83083 83015 83018  0.166666666667 0.166666666667 
    145 48032 83196 83197  0.166666666667 0.166666666667 
    145 48033 146 48033  0.25 0.0 
    145 83196 101 83196  0.25 0.0 
    145 83197 48032 48033  0.166666666667 0.166666666667 
    146 83309 145 83309  0.25 0.0 
    146 83310 147 83310  0.25 0.0 
    156 83313 155 83313  0.25 0.0 
    156 83314 157 83314  0.25 0.0 
    157 83315 156 83315  0.25 0.0 
    157 83316 158 83316  0.25 0.0 
    158 83317 157 83317  0.25 0.0 
    158 83318 159 83318  0.25 0.0 
    159 83319 158 83319  0.25 0.0 
    159 83320 160 83320  0.25 0.0 
    160 104375 159 104375  0.25 0.0 
    160 104376 161 104376  0.25 0.0 
    168 83082 167 83082  0.25 0.0 
    168 83084 83198 83199  0.166666666667 0.166666666667 
    168 83198 104379 104380  0.166666666667 0.166666666667 
    168 83199 83082 83084  0.166666666667 0.166666666667 
    168 104379 167 104379  0.25 0.0 
    168 104380 83198 83199  0.166666666667 0.166666666667 
    169 83125 83206 83207  0.166666666667 0.166666666667 
    169 83128 170 83128  0.25 0.0 
    169 83206 83125 83128  0.166666666667 0.166666666667 
    169 83207 204 83207  0.25 0.0 
    170 83129 169 83129  0.25 0.0 
    170 83132 83208 83209  0.166666666667 0.166666666667 
    170 83208 205 83208  0.25 0.0 
    170 83209 83129 83132  0.166666666667 0.166666666667 
    185 83310 147 83310  0.25 0.0 
    185 83311 83488 83489  0.166666666667 0.166666666667 
    185 83488 83310 83311  0.166666666667 0.166666666667 
    185 83489 186 83489  0.25 0.0 
    193 83312 97298 97299  0.166666666667 0.166666666667 
    193 83313 155 83313  0.25 0.0 
    193 97298 192 97298  0.25 0.0 
    193 97299 83312 83313  0.166666666667 0.166666666667 
    194 83568 104376 104377  0.166666666667 0.166666666667 
    194 83569 195 83569  0.25 0.0 
    194 104376 161 104376  0.25 0.0 
    194 104377 83568 83569  0.166666666667 0.166666666667 
    195 83570 194 83570  0.25 0.0 
    195 83571 196 83571  0.25 0.0 
    196 83572 195 83572  0.25 0.0 
    196 83573 197 83573  0.25 0.0 
    197 83574 196 83574  0.25 0.0 
    197 83575 198 83575  0.25 0.0 
    198 83576 197 83576  0.25 0.0 
    198 83577 199 83577  0.25 0.0 
    199 83578 198 83578  0.25 0.0 
    199 83579 200 83579  0.25 0.0 
    200 83580 199 83580  0.25 0.0 
    200 83581 104378 104379  0.166666666667 0.166666666667 
    200 104378 83580 83581  0.166666666667 0.166666666667 
    200 104379 167 104379  0.25 0.0 
    201 43376 104380 104381  0.166666666667 0.166666666667 
    201 43377 202 43377  0.25 0.0 
    201 83198 104380 104381  0.166666666667 0.166666666667 
    201 83201 202 83201  0.25 0.0 
    201 104380 83198 83201  0.166666666667 0.166666666667 
    201 104381 43376 43377  0.166666666667 0.166666666667 
    202 43304 201 43304  0.25 0.0 
    202 43305 203 43305  0.25 0.0 
    202 83202 201 83202  0.25 0.0 
    202 83203 203 83203  0.25 0.0 
    203 43280 202 43280  0.25 0.0 
    203 43281 204 43281  0.25 0.0 
    203 83204 202 83204  0.25 0.0 
    203 83207 204 83207  0.25 0.0 
    204 83602 203 83602  0.25 0.0 
    204 83603 205 83603  0.25 0.0 
    206 83208 205 83208  0.25 0.0 
    206 83211 83322 83323  0.166666666667 0.166666666667 
    206 83322 230 83322  0.25 0.0 
    206 83323 83208 83211  0.166666666667 0.166666666667 
    220 83277 83459 83460  0.166666666667 0.166666666667 
    220 83280 221 83280  0.25 0.0 
    220 83459 83277 83280  0.166666666667 0.166666666667 
    220 83460 244 83460  0.25 0.0 
    221 48034 220 48034  0.25 0.0 
    221 48035 83461 83462  0.166666666667 0.166666666667 
    221 83461 245 83461  0.25 0.0 
    221 83462 48034 48035  0.166666666667 0.166666666667 
    222 83489 186 83489  0.25 0.0 
    222 83490 83705 83706  0.166666666667 0.166666666667 
    222 83705 83489 83490  0.166666666667 0.166666666667 
    222 83706 223 83706  0.25 0.0 
    228 97297 252 97297  0.25 0.0 
    228 97298 192 97298  0.25 0.0 
    229 83603 205 83603  0.25 0.0 
    229 83604 83889 83890  0.166666666667 0.166666666667 
    229 83889 83603 83604  0.166666666667 0.166666666667 
    229 83890 230 83890  0.25 0.0 
    231 83322 230 83322  0.25 0.0 
    231 83325 83605 83606  0.166666666667 0.166666666667 
    231 83605 255 83605  0.25 0.0 
    231 83606 83322 83325  0.166666666667 0.166666666667 
    244 83685 220 83685  0.25 0.0 
    244 83686 270 83686  0.25 0.0 
    246 83461 245 83461  0.25 0.0 
    246 83463 83687 83688  0.166666666667 0.166666666667 
    246 83687 272 83687  0.25 0.0 
    246 83688 83461 83463  0.166666666667 0.166666666667 
    247 83706 223 83706  0.25 0.0 
    247 83707 83989 83990  0.166666666667 0.166666666667 
    247 83989 83706 83707  0.166666666667 0.166666666667 
    247 83990 248 83990  0.25 0.0 
    253 83708 279 83708  0.25 0.0 
    253 83709 97297 97300  0.166666666667 0.166666666667 
    253 97297 252 97297  0.25 0.0 
    253 97300 83708 83709  0.166666666667 0.166666666667 
    254 83890 230 83890  0.25 0.0 
    254 83891 284 83891  0.25 0.0 
    256 83605 255 83605  0.25 0.0 
    256 83608 257 83608  0.25 0.0 
    257 83609 256 83609  0.25 0.0 
    257 83612 258 83612  0.25 0.0 
    258 83613 257 83613  0.25 0.0 
    258 83615 83892 83893  0.166666666667 0.166666666667 
    258 83892 288 83892  0.25 0.0 
    258 83893 83613 83615  0.166666666667 0.166666666667 
    270 83956 244 83956  0.25 0.0 
    270 83957 97596 97597  0.166666666667 0.166666666667 
    270 97596 83956 83957  0.166666666667 0.166666666667 
    270 97597 271 97597  0.25 0.0 
    271 97600 270 97600  0.25 0.0 
    271 97601 272 97601  0.25 0.0 
    272 97604 271 97604  0.25 0.0 
    272 97605 273 97605  0.25 0.0 
    273 83687 272 83687  0.25 0.0 
    273 83689 83958 83959  0.166666666667 0.166666666667 
    273 83958 97608 97609  0.166666666667 0.166666666667 
    273 83959 83687 83689  0.166666666667 0.166666666667 
    273 97608 272 97608  0.25 0.0 
    273 97609 83958 83959  0.166666666667 0.166666666667 
    274 48025 83990 83991  0.166666666667 0.166666666667 
    274 48026 275 48026  0.25 0.0 
    274 83990 248 83990  0.25 0.0 
    274 83991 48025 48026  0.166666666667 0.166666666667 
    275 97624 274 97624  0.25 0.0 
    275 97625 276 97625  0.25 0.0 
    280 83708 279 83708  0.25 0.0 
    280 83711 281 83711  0.25 0.0 
    281 83712 280 83712  0.25 0.0 
    281 83715 282 83715  0.25 0.0 
    282 83716 281 83716  0.25 0.0 
    282 83719 83992 83993  0.166666666667 0.166666666667 
    282 83992 306 83992  0.25 0.0 
    282 83993 83716 83719  0.166666666667 0.166666666667 
    283 29928 97549 97550  0.166666666667 0.166666666667 
    283 29929 97551 97552  0.166666666667 0.166666666667 
    283 43445 97549 97550  0.166666666667 0.166666666667 
    283 43446 97551 97552  0.166666666667 0.166666666667 
    283 97549 43445 43446  0.166666666667 0.166666666667 
    283 97550 29928 29929  0.166666666667 0.166666666667 
    283 97551 29928 29929  0.166666666667 0.166666666667 
    283 97552 43445 43446  0.166666666667 0.166666666667 
    284 44009 254 44009  0.25 0.0 
    284 44010 316 44010  0.25 0.0 
    288 73334 84159 84160  0.166666666667 0.166666666667 
    288 73335 258 73335  0.25 0.0 
    288 84159 287 84159  0.25 0.0 
    288 84160 73334 73335  0.166666666667 0.166666666667 
    300 84308 97625 97626  0.166666666667 0.166666666667 
    300 84309 301 84309  0.25 0.0 
    300 97625 276 97625  0.25 0.0 
    300 97626 84308 84309  0.166666666667 0.166666666667 
    307 83992 306 83992  0.25 0.0 
    307 83995 308 83995  0.25 0.0 
    308 83996 307 83996  0.25 0.0 
    308 83999 309 83999  0.25 0.0 
    309 84000 308 84000  0.25 0.0 
    309 84003 310 84003  0.25 0.0 
    310 84004 309 84004  0.25 0.0 
    310 84007 311 84007  0.25 0.0 
    311 84008 310 84008  0.25 0.0 
    311 84011 312 84011  0.25 0.0 
    312 84012 311 84012  0.25 0.0 
    312 84015 313 84015  0.25 0.0 
    313 84016 312 84016  0.25 0.0 
    313 84019 314 84019  0.25 0.0 
    314 84020 313 84020  0.25 0.0 
    314 84023 315 84023  0.25 0.0 
    315 29927 84312 84313  0.166666666667 0.166666666667 
    315 29928 97547 97550  0.166666666667 0.166666666667 
    315 84312 314 84312  0.25 0.0 
    315 84313 29927 29928  0.166666666667 0.166666666667 
    315 97547 314 97547  0.25 0.0 
    315 97550 29927 29928  0.166666666667 0.166666666667 
    316 44027 284 44027  0.25 0.0 
    316 44028 84337 84338  0.166666666667 0.166666666667 
    316 84337 44027 44028  0.166666666667 0.166666666667 
    316 84338 317 84338  0.25 0.0 
    319 84158 84341 84342  0.166666666667 0.166666666667 
    319 84159 287 84159  0.25 0.0 
    319 84341 318 84341  0.25 0.0 
    319 84342 84158 84159  0.166666666667 0.166666666667 
    331 84084 84198 84199  0.166666666667 0.166666666667 
    331 84086 104446 104447  0.166666666667 0.166666666667 
    331 84198 84084 84086  0.166666666667 0.166666666667 
    331 84199 361 84199  0.25 0.0 
    331 104446 361 104446  0.25 0.0 
    331 104447 84084 84086  0.166666666667 0.166666666667 
    332 84309 301 84309  0.25 0.0 
    332 84310 84451 84452  0.166666666667 0.166666666667 
    332 84451 84309 84310  0.166666666667 0.166666666667 
    332 84452 333 84452  0.25 0.0 
    345 84311 375 84311  0.25 0.0 
    345 84312 314 84312  0.25 0.0 
    346 84338 317 84338  0.25 0.0 
    346 84339 84498 84499  0.166666666667 0.166666666667 
    346 84498 84338 84339  0.166666666667 0.166666666667 
    346 84499 347 84499  0.25 0.0 
    347 84340 84502 84503  0.166666666667 0.166666666667 
    347 84341 318 84341  0.25 0.0 
    347 84502 346 84502  0.25 0.0 
    347 84503 84340 84341  0.166666666667 0.166666666667 
    361 84388 331 84388  0.25 0.0 
    361 84389 389 84389  0.25 0.0 
    362 84390 390 84390  0.25 0.0 
    362 84391 104446 104449  0.166666666667 0.166666666667 
    362 104446 361 104446  0.25 0.0 
    362 104449 84390 84391  0.166666666667 0.166666666667 
    363 84452 333 84452  0.25 0.0 
    363 84453 84590 84591  0.166666666667 0.166666666667 
    363 84590 84452 84453  0.166666666667 0.166666666667 
    363 84591 364 84591  0.25 0.0 
    364 97899 363 97899  0.25 0.0 
    364 97900 365 97900  0.25 0.0 
    365 97903 364 97903  0.25 0.0 
    365 97904 366 97904  0.25 0.0 
    366 97907 365 97907  0.25 0.0 
    366 97908 367 97908  0.25 0.0 
    367 97911 366 97911  0.25 0.0 
    367 97912 368 97912  0.25 0.0 
    368 97915 367 97915  0.25 0.0 
    368 97916 369 97916  0.25 0.0 
    369 97919 368 97919  0.25 0.0 
    369 97920 370 97920  0.25 0.0 
    370 84594 369 84594  0.25 0.0 
    370 84595 371 84595  0.25 0.0 
    371 84597 370 84597  0.25 0.0 
    371 84598 372 84598  0.25 0.0 
    372 84599 371 84599  0.25 0.0 
    372 84600 373 84600  0.25 0.0 
    373 84601 372 84601  0.25 0.0 
    373 84602 374 84602  0.25 0.0 
    374 84603 373 84603  0.25 0.0 
    374 84604 375 84604  0.25 0.0 
    375 84454 84605 84606  0.166666666667 0.166666666667 
    375 84455 345 84455  0.25 0.0 
    375 84605 374 84605  0.25 0.0 
    375 84606 84454 84455  0.166666666667 0.166666666667 
    389 84547 361 84547  0.25 0.0 
    389 84548 412 84548  0.25 0.0 
    391 84390 390 84390  0.25 0.0 
    391 84393 392 84393  0.25 0.0 
    392 84394 391 84394  0.25 0.0 
    392 84397 393 84397  0.25 0.0 
    393 84398 392 84398  0.25 0.0 
    393 84401 394 84401  0.25 0.0 
    394 84402 393 84402  0.25 0.0 
    394 84405 395 84405  0.25 0.0 
    395 84406 394 84406  0.25 0.0 
    395 84409 396 84409  0.25 0.0 
    395 98032 394 98032  0.25 0.0 
    395 98033 396 98033  0.25 0.0 
    396 69724 84680 84681  0.166666666667 0.166666666667 
    396 69725 84410 84412  0.166666666667 0.166666666667 
    396 84410 395 84410  0.25 0.0 
    396 84412 69724 69725  0.166666666667 0.166666666667 
    396 84680 395 84680  0.25 0.0 
    396 84681 69724 69725  0.166666666667 0.166666666667 
    397 84428 84558 84559  0.166666666667 0.166666666667 
    397 84430 84560 84561  0.166666666667 0.166666666667 
    397 84558 84428 84430  0.166666666667 0.166666666667 
    397 84559 418 84559  0.25 0.0 
    397 84560 418 84560  0.25 0.0 
    397 84561 84428 84430  0.166666666667 0.166666666667 
    412 84677 389 84677  0.25 0.0 
    412 84678 437 84678  0.25 0.0 
    417 98031 98184 98185  0.166666666667 0.166666666667 
    417 98032 394 98032  0.25 0.0 
    417 98184 416 98184  0.25 0.0 
    417 98185 98031 98032  0.166666666667 0.166666666667 
    418 70366 397 70366  0.25 0.0 
    418 70367 442 70367  0.25 0.0 
    419 84560 418 84560  0.25 0.0 
    419 84563 84697 84698  0.166666666667 0.166666666667 
    419 84697 443 84697  0.25 0.0 
    419 84698 84560 84563  0.166666666667 0.166666666667 
    420 84622 84937 84938  0.166666666667 0.166666666667 
    420 84625 421 84625  0.25 0.0 
    420 84937 84622 84625  0.166666666667 0.166666666667 
    420 84938 98216 98217  0.166666666667 0.166666666667 
    420 98216 84937 84938  0.166666666667 0.166666666667 
    420 98217 421 98217  0.25 0.0 
    421 67200 98220 98221  0.166666666667 0.166666666667 
    421 67201 84626 84628  0.166666666667 0.166666666667 
    421 84626 420 84626  0.25 0.0 
    421 84628 67200 67201  0.166666666667 0.166666666667 
    421 98220 420 98220  0.25 0.0 
    421 98221 67200 67201  0.166666666667 0.166666666667 
    437 84999 412 84999  0.25 0.0 
    437 85000 461 85000  0.25 0.0 
    441 98183 465 98183  0.25 0.0 
    441 98184 416 98184  0.25 0.0 
    442 70368 418 70368  0.25 0.0 
    442 70369 466 70369  0.25 0.0 
    444 84697 443 84697  0.25 0.0 
    444 84700 85026 85027  0.166666666667 0.166666666667 
    444 85026 468 85026  0.25 0.0 
    444 85027 84697 84700  0.166666666667 0.166666666667 
    445 67200 98221 98222  0.166666666667 0.166666666667 
    445 67202 85118 85119  0.166666666667 0.166666666667 
    445 85118 85279 85280  0.166666666667 0.166666666667 
    445 85119 67200 67202  0.166666666667 0.166666666667 
    445 85279 98221 98222  0.166666666667 0.166666666667 
    445 85280 85118 85119  0.166666666667 0.166666666667 
    445 98221 67200 67202  0.166666666667 0.166666666667 
    445 98222 85279 85280  0.166666666667 0.166666666667 
    461 85164 437 85164  0.25 0.0 
    461 85165 495 85165  0.25 0.0 
    465 85166 499 85166  0.25 0.0 
    465 85167 441 85167  0.25 0.0 
    466 70370 442 70370  0.25 0.0 
    466 70371 85344 85345  0.166666666667 0.166666666667 
    466 85344 70370 70371  0.166666666667 0.166666666667 
    466 85345 467 85345  0.25 0.0 
    469 85026 468 85026  0.25 0.0 
    469 85029 470 85029  0.25 0.0 
    470 45928 469 45928  0.25 0.0 
    470 45930 85180 85181  0.166666666667 0.166666666667 
    470 85180 503 85180  0.25 0.0 
    470 85181 45928 45930  0.166666666667 0.166666666667 
    471 85065 85208 85209  0.166666666667 0.166666666667 
    471 85068 472 85068  0.25 0.0 
    471 85208 85065 85068  0.166666666667 0.166666666667 
    471 85209 85369 85370  0.166666666667 0.166666666667 
    471 85369 85208 85209  0.166666666667 0.166666666667 
    471 85370 472 85370  0.25 0.0 
    472 85069 471 85069  0.25 0.0 
    472 85072 473 85072  0.25 0.0 
    472 85373 471 85373  0.25 0.0 
    472 85374 473 85374  0.25 0.0 
    473 85073 472 85073  0.25 0.0 
    473 85076 474 85076  0.25 0.0 
    473 85376 472 85376  0.25 0.0 
    473 85377 474 85377  0.25 0.0 
    474 85077 473 85077  0.25 0.0 
    474 85080 475 85080  0.25 0.0 
    474 85378 473 85378  0.25 0.0 
    474 85379 475 85379  0.25 0.0 
    475 85081 474 85081  0.25 0.0 
    475 85084 476 85084  0.25 0.0 
    476 85085 475 85085  0.25 0.0 
    476 85088 477 85088  0.25 0.0 
    477 85089 476 85089  0.25 0.0 
    477 85092 478 85092  0.25 0.0 
    478 85093 477 85093  0.25 0.0 
    478 85096 479 85096  0.25 0.0 
    479 85097 478 85097  0.25 0.0 
    479 85100 98279 98280  0.166666666667 0.166666666667 
    479 98279 509 98279  0.25 0.0 
    479 98280 85097 85100  0.166666666667 0.166666666667 
    495 85320 461 85320  0.25 0.0 
    495 85321 528 85321  0.25 0.0 
    499 85322 532 85322  0.25 0.0 
    499 85323 465 85323  0.25 0.0 
    500 85345 467 85345  0.25 0.0 
    500 85346 533 85346  0.25 0.0 
    504 85180 503 85180  0.25 0.0 
    504 85182 85347 85348  0.166666666667 0.166666666667 
    504 85347 537 85347  0.25 0.0 
    504 85348 85180 85182  0.166666666667 0.166666666667 
    505 85379 475 85379  0.25 0.0 
    505 85380 85485 85486  0.166666666667 0.166666666667 
    505 85485 85379 85380  0.166666666667 0.166666666667 
    505 85486 506 85486  0.25 0.0 
    510 85381 543 85381  0.25 0.0 
    510 85382 98279 98282  0.166666666667 0.166666666667 
    510 98279 509 98279  0.25 0.0 
    510 98282 85381 85382  0.166666666667 0.166666666667 
    528 85413 495 85413  0.25 0.0 
    528 85414 565 85414  0.25 0.0 
    532 85415 569 85415  0.25 0.0 
    532 85416 499 85416  0.25 0.0 
    533 85445 500 85445  0.25 0.0 
    533 85446 98477 98478  0.166666666667 0.166666666667 
    533 98477 85445 85446  0.166666666667 0.166666666667 
    533 98478 534 98478  0.25 0.0 
    538 85347 537 85347  0.25 0.0 
    538 85349 85447 85448  0.166666666667 0.166666666667 
    538 85447 574 85447  0.25 0.0 
    538 85448 85347 85349  0.166666666667 0.166666666667 
    539 85486 506 85486  0.25 0.0 
    539 85487 575 85487  0.25 0.0 
    544 85381 543 85381  0.25 0.0 
    544 85384 545 85384  0.25 0.0 
    545 85385 544 85385  0.25 0.0 
    545 85388 546 85388  0.25 0.0 
    546 85389 545 85389  0.25 0.0 
    546 85391 547 85391  0.25 0.0 
    547 85392 546 85392  0.25 0.0 
    547 85393 98442 98443  0.166666666667 0.166666666667 
    547 98442 583 98442  0.25 0.0 
    547 98443 85392 85393  0.166666666667 0.166666666667 
    565 85513 528 85513  0.25 0.0 
    565 85514 602 85514  0.25 0.0 
    569 85515 606 85515  0.25 0.0 
    569 85516 532 85516  0.25 0.0 
    570 85651 98478 98479  0.166666666667 0.166666666667 
    570 85652 571 85652  0.25 0.0 
    570 98478 534 98478  0.25 0.0 
    570 98479 85651 85652  0.166666666667 0.166666666667 
    571 85655 570 85655  0.25 0.0 
    571 85656 572 85656  0.25 0.0 
    574 85554 609 85554  0.25 0.0 
    574 85555 538 85555  0.25 0.0 
    575 19600 539 19600  0.25 0.0 
    575 19601 610 19601  0.25 0.0 
    584 85560 619 85560  0.25 0.0 
    584 85561 98442 98445  0.166666666667 0.166666666667 
    584 98442 583 98442  0.25 0.0 
    584 98445 85560 85561  0.166666666667 0.166666666667 
    602 85582 565 85582  0.25 0.0 
    602 85583 637 85583  0.25 0.0 
    606 85584 641 85584  0.25 0.0 
    606 85585 569 85585  0.25 0.0 
    607 85656 572 85656  0.25 0.0 
    607 85657 85798 85799  0.166666666667 0.166666666667 
    607 85798 85656 85657  0.166666666667 0.166666666667 
    607 85799 608 85799  0.25 0.0 
    608 98587 607 98587  0.25 0.0 
    608 98588 609 98588  0.25 0.0 
    609 85658 98591 98592  0.166666666667 0.166666666667 
    609 85659 574 85659  0.25 0.0 
    609 98591 608 98591  0.25 0.0 
    609 98592 85658 85659  0.166666666667 0.166666666667 
    610 20181 575 20181  0.25 0.0 
    610 20182 85836 85837  0.166666666667 0.166666666667 
    610 85836 20181 20182  0.166666666667 0.166666666667 
    610 85837 611 85837  0.25 0.0 
    619 85669 98611 98612  0.166666666667 0.166666666667 
    619 85670 584 85670  0.25 0.0 
    619 98611 618 98611  0.25 0.0 
    619 98612 85669 85670  0.166666666667 0.166666666667 
    637 46787 602 46787  0.25 0.0 
    637 46788 667 46788  0.25 0.0 
    641 85701 671 85701  0.25 0.0 
    641 85702 606 85702  0.25 0.0 
    642 85837 611 85837  0.25 0.0 
    642 85838 86017 86018  0.166666666667 0.166666666667 
    642 86017 85837 85838  0.166666666667 0.166666666667 
    642 86018 643 86018  0.25 0.0 
    643 98723 642 98723  0.25 0.0 
    643 98724 644 98724  0.25 0.0 
    649 98610 679 98610  0.25 0.0 
    649 98611 618 98611  0.25 0.0 
    667 46789 637 46789  0.25 0.0 
    667 46790 698 46790  0.25 0.0 
    670 98743 669 98743  0.25 0.0 
    670 98744 671 98744  0.25 0.0 
    671 98747 670 98747  0.25 0.0 
    671 98748 672 98748  0.25 0.0 
    672 85701 671 85701  0.25 0.0 
    672 85703 85864 85865  0.166666666667 0.166666666667 
    672 85864 98751 98752  0.166666666667 0.166666666667 
    672 85865 85701 85703  0.166666666667 0.166666666667 
    672 98751 671 98751  0.25 0.0 
    672 98752 85864 85865  0.166666666667 0.166666666667 
    673 85731 85871 85872  0.166666666667 0.166666666667 
    673 85734 85873 85874  0.166666666667 0.166666666667 
    673 85871 85731 85734  0.166666666667 0.166666666667 
    673 85872 98767 98768  0.166666666667 0.166666666667 
    673 85873 98767 98768  0.166666666667 0.166666666667 
    673 85874 85731 85734  0.166666666667 0.166666666667 
    673 98767 85871 85872  0.166666666667 0.166666666667 
    673 98768 85873 85874  0.166666666667 0.166666666667 
    674 86167 98724 98725  0.166666666667 0.166666666667 
    674 86168 675 86168  0.25 0.0 
    674 98724 644 98724  0.25 0.0 
    674 98725 86167 86168  0.166666666667 0.166666666667 
    679 86020 705 86020  0.25 0.0 
    679 86021 649 86021  0.25 0.0 
    698 46791 667 46791  0.25 0.0 
    698 46792 724 46792  0.25 0.0 
    700 86185 699 86185  0.25 0.0 
    700 86186 98742 98743  0.166666666667 0.166666666667 
    700 98742 86185 86186  0.166666666667 0.166666666667 
    700 98743 669 98743  0.25 0.0 
    701 86168 675 86168  0.25 0.0 
    701 86169 86502 86503  0.166666666667 0.166666666667 
    701 86502 86168 86169  0.166666666667 0.166666666667 
    701 86503 702 86503  0.25 0.0 
    702 99006 701 99006  0.25 0.0 
    702 99007 703 99007  0.25 0.0 
    705 86170 728 86170  0.25 0.0 
    705 86171 679 86171  0.25 0.0 
    724 46793 698 46793  0.25 0.0 
    724 46794 86530 86531  0.166666666667 0.166666666667 
    724 86530 46793 46794  0.166666666667 0.166666666667 
    724 86531 725 86531  0.25 0.0 
    725 86184 747 86184  0.25 0.0 
    725 86185 699 86185  0.25 0.0 
    726 86691 99007 99008  0.166666666667 0.166666666667 
    726 86692 727 86692  0.25 0.0 
    726 99007 703 99007  0.25 0.0 
    726 99008 86691 86692  0.166666666667 0.166666666667 
    727 99166 726 99166  0.25 0.0 
    727 99167 728 99167  0.25 0.0 
    728 86505 749 86505  0.25 0.0 
    728 86506 705 86506  0.25 0.0 
    747 86531 725 86531  0.25 0.0 
    747 86532 768 86532  0.25 0.0 
    747 86533 768 86533  0.25 0.0 
    747 86534 725 86534  0.25 0.0 
    748 86447 86633 86634  0.166666666667 0.166666666667 
    748 86450 99106 99107  0.166666666667 0.166666666667 
    748 86633 86447 86450  0.166666666667 0.166666666667 
    748 86634 86793 86794  0.166666666667 0.166666666667 
    748 86793 86633 86634  0.166666666667 0.166666666667 
    748 86794 99106 99107  0.166666666667 0.166666666667 
    748 99106 86793 86794  0.166666666667 0.166666666667 
    748 99107 86447 86450  0.166666666667 0.166666666667 
    749 86969 99167 99168  0.166666666667 0.166666666667 
    749 86970 99169 99170  0.166666666667 0.166666666667 
    749 99167 728 99167  0.25 0.0 
    749 99168 86969 86970  0.166666666667 0.166666666667 
    749 99169 86969 86970  0.166666666667 0.166666666667 
    749 99170 728 99170  0.25 0.0 
    768 86730 747 86730  0.25 0.0 
    768 86731 795 86731  0.25 0.0 
    768 86732 795 86732  0.25 0.0 
    768 86733 747 86733  0.25 0.0 
    769 86561 86760 86761  0.166666666667 0.166666666667 
    769 86562 86762 86763  0.166666666667 0.166666666667 
    769 86760 86561 86562  0.166666666667 0.166666666667 
    769 86761 796 86761  0.25 0.0 
    769 86762 796 86762  0.25 0.0 
    769 86763 86561 86562  0.166666666667 0.166666666667 
    770 86590 86775 86776  0.166666666667 0.166666666667 
    770 86591 86777 86778  0.166666666667 0.166666666667 
    770 86775 86590 86591  0.166666666667 0.166666666667 
    770 86776 797 86776  0.25 0.0 
    770 86777 797 86777  0.25 0.0 
    770 86778 86590 86591  0.166666666667 0.166666666667 
    771 86601 86788 86789  0.166666666667 0.166666666667 
    771 86604 772 86604  0.25 0.0 
    771 86788 86601 86604  0.166666666667 0.166666666667 
    771 86789 87083 87084  0.166666666667 0.166666666667 
    771 87083 86788 86789  0.166666666667 0.166666666667 
    771 87084 772 87084  0.25 0.0 
    772 86605 771 86605  0.25 0.0 
    772 86608 773 86608  0.25 0.0 
    773 86609 772 86609  0.25 0.0 
    773 86612 774 86612  0.25 0.0 
    774 86613 773 86613  0.25 0.0 
    774 86616 775 86616  0.25 0.0 
    775 86617 774 86617  0.25 0.0 
    775 86620 776 86620  0.25 0.0 
    776 86621 775 86621  0.25 0.0 
    776 86624 777 86624  0.25 0.0 
    777 86625 776 86625  0.25 0.0 
    777 86628 86790 86791  0.166666666667 0.166666666667 
    777 86790 99360 99361  0.166666666667 0.166666666667 
    777 86791 86625 86628  0.166666666667 0.166666666667 
    777 99360 776 99360  0.25 0.0 
    777 99361 86790 86791  0.166666666667 0.166666666667 
    795 87013 768 87013  0.25 0.0 
    795 87014 99426 99427  0.166666666667 0.166666666667 
    795 87015 99426 99427  0.166666666667 0.166666666667 
    795 87016 768 87016  0.25 0.0 
    795 99426 87013 87014  0.166666666667 0.166666666667 
    795 99427 87015 87016  0.166666666667 0.166666666667 
    796 87037 769 87037  0.25 0.0 
    796 87038 99446 99447  0.166666666667 0.166666666667 
    796 87039 99446 99447  0.166666666667 0.166666666667 
    796 87040 769 87040  0.25 0.0 
    796 99446 87037 87038  0.166666666667 0.166666666667 
    796 99447 87039 87040  0.166666666667 0.166666666667 
    797 87049 770 87049  0.25 0.0 
    797 87050 99466 99467  0.166666666667 0.166666666667 
    797 87051 99466 99467  0.166666666667 0.166666666667 
    797 87052 770 87052  0.25 0.0 
    797 99466 87049 87050  0.166666666667 0.166666666667 
    797 99467 87051 87052  0.166666666667 0.166666666667 
    798 87084 772 87084  0.25 0.0 
    798 87085 87293 87294  0.166666666667 0.166666666667 
    798 87293 87084 87085  0.166666666667 0.166666666667 
    798 87294 799 87294  0.25 0.0 
    799 87297 798 87297  0.25 0.0 
    799 87298 800 87298  0.25 0.0 
    800 87301 799 87301  0.25 0.0 
    800 87302 801 87302  0.25 0.0 
    801 87305 800 87305  0.25 0.0 
    801 87306 802 87306  0.25 0.0 
    802 87309 801 87309  0.25 0.0 
    802 87310 99359 99360  0.166666666667 0.166666666667 
    802 99359 87309 87310  0.166666666667 0.166666666667 
    802 99360 776 99360  0.25 0.0 
    819 67250 87350 87351  0.166666666667 0.166666666667 
    819 67251 820 67251  0.25 0.0 
    819 87350 67250 67251  0.166666666667 0.166666666667 
    819 87351 847 87351  0.25 0.0 
    820 87127 819 87127  0.25 0.0 
    820 87128 821 87128  0.25 0.0 
    821 87129 820 87129  0.25 0.0 
    821 87131 822 87131  0.25 0.0 
    822 87132 821 87132  0.25 0.0 
    822 87135 823 87135  0.25 0.0 
    823 87136 822 87136  0.25 0.0 
    823 87139 824 87139  0.25 0.0 
    824 87140 823 87140  0.25 0.0 
    824 87143 825 87143  0.25 0.0 
    825 87144 824 87144  0.25 0.0 
    825 87147 826 87147  0.25 0.0 
    826 87148 825 87148  0.25 0.0 
    826 87151 827 87151  0.25 0.0 
    827 87152 826 87152  0.25 0.0 
    827 87155 828 87155  0.25 0.0 
    828 87156 827 87156  0.25 0.0 