BEGIN OPTIONS
  HEAD FILEOUT biscayne.hds
  BUDGET FILEOUT biscayne.cbb
END OPTIONS

BEGIN PERIOD 1
  SAVE HEAD ALL
  SAVE BUDGET ALL
  PRINT BUDGET ALL
END PERIOD

BEGIN PERIOD 2
  PRINT BUDGET ALL
END PERIOD

BEGIN PERIOD 100
  SAVE HEAD ALL
  SAVE BUDGET ALL
  PRINT BUDGET ALL
END PERIOD

