# File generated by Flopy version 3.3.7 on 04/18/2023 at 16:55:44.
BEGIN Options
END Options

BEGIN Timing
  TDIS6  v6.tdis
END Timing

BEGIN Models
  gwf6  v6.nam  v6
END Models

BEGIN Exchanges
END Exchanges

BEGIN SOLUTIONGROUP  1
  MXITER  1
  ims6  v6.ims  v6
END SOLUTIONGROUP  1

