# Simulation name file for MODFLOW-2015 prepared by Mf5to15

BEGIN Options
END Options

BEGIN Timing
  TDIS6  v6.tdis
END Timing

BEGIN Models
  GWF6  v6.nam  v6
END Models

BEGIN Exchanges
END Exchanges

BEGIN SOLUTIONGROUP 1
  MXITER  1
  IMS6  v6.ims  v6
END SOLUTIONGROUP
