# File generated by Flopy version 3.3.7 on 04/18/2023 at 16:55:48.
BEGIN Options
  PRINT_FLOWS
END Options

BEGIN Dimensions
  MAXBOUND  60
END Dimensions

BEGIN PERIOD  1
  1 108 172    4534.00000000
  1 109 171    4536.00000000
  1 110 170    4538.00000000
  1 111 169    4540.00000000
  1 112 167    4545.00000000
  1 112 168    4544.00000000
  1 113 166    4547.00000000
  1 119 158    4591.00000000
  1 119 159    4588.00000000
  1 120 157    4600.00000000
  1 121 156    4610.00000000
  1 122 154    4628.00000000
  1 122 155    4624.00000000
  1 123 153    4638.00000000
  1 124 152    4650.00000000
  1 125 150    4667.00000000
  1 125 151    4663.00000000
  1 126 149    4675.00000000
  1 127 148    4657.00000000
  1 128 146    4700.00000000
  1 128 147    4692.00000000
  1 129 145    4720.00000000
  1 130 144    4732.00000000
  1 138 681    1595.00000000
  1 139 680    1590.00000000
  1 140 679    1590.00000000
  1 141 679    1595.00000000
  1 142 678    1630.00000000
  1 143 677    1630.00000000
  1 144 125    4541.00000000
  1 144 676    1635.00000000
  1 145 124    4562.00000000
  1 146 122    4721.00000000
  1 146 123    4598.00000000
  1 147 121    4691.00000000
  1 167 94    4940.00000000
  1 167 95    4942.00000000
  1 168 93    4948.00000000
  1 169 92    4925.00000000
  1 170 90    5003.00000000
  1 170 91    4992.00000000
  1 171 89    5027.00000000
  1 172 88    5055.00000000
  1 173 86    5014.00000000
  1 173 87    5029.00000000
  1 174 85    5040.00000000
  1 175 84    4955.00000000
  1 176 82    4887.00000000
  1 176 83    4950.00000000
  1 196 62    6174.00000000
  1 197 62    6256.00000000
  1 203 66    5780.00000000
  1 207 54    6310.00000000
  1 208 53    6326.00000000
  1 209 52    6334.00000000
  1 210 52    6323.00000000
  1 223 42    6368.00000000
  1 224 42    6395.00000000
  1 225 42    6422.00000000
  1 226 42    6449.00000000
END PERIOD  1

