# File generated by Flopy version 3.3.7 on 04/18/2023 at 16:55:50.
BEGIN Options
  SAVE_FLOWS
END Options

BEGIN Dimensions
  MAXBOUND  1097
END Dimensions

BEGIN PERIOD  1
  1 13 332    2700.10000000   50000.00000000
  1 14 312    2545.90000000   50000.00000000
  1 14 315    2634.50000000   50000.00000000
  1 14 336    2781.05000000   50000.00000000
  1 15 308    2555.70000000   50000.00000000
  1 15 324    2706.70000000   50000.00000000
  1 16 307    2595.10000000   50000.00000000
  1 16 308    2568.90000000   50000.00000000
  1 16 318    2880.50000000   50000.00000000
  1 16 350    2605.00000000   50000.00000000
  1 17 308    2555.70000000   50000.00000000
  1 17 330    2857.60000000   50000.00000000
  1 20 337    2821.50000000   50000.00000000
  1 26 343    2555.70000000   50000.00000000
  1 17 343    2519.70000000   50000.00000000
  1 17 354    2506.50000000   50000.00000000
  1 18 308    2568.90000000   50000.00000000
  1 18 348    2536.10000000   50000.00000000
  1 18 358    2634.50000000   50000.00000000
  1 19 309    2575.40000000   50000.00000000
  1 19 327    2657.40000000   50000.00000000
  1 19 361    2585.30000000   50000.00000000
  1 27 310    2752.60000000   50000.00000000
  1 27 343    2598.40000000   50000.00000000
  1 20 309    2618.10000000   50000.00000000
  1 21 309    2624.60000000   50000.00000000
  1 22 304    2870.70000000   50000.00000000
  1 22 309    2703.40000000   50000.00000000
  1 23 309    2749.30000000   50000.00000000
  1 24 310    2742.70000000   50000.00000000
  1 25 307    2762.40000000   50000.00000000
  1 25 310    2729.60000000   50000.00000000
  1 26 302    3044.60000000   50000.00000000
  1 26 310    2742.70000000   50000.00000000
  1 26 375    2447.50000000   50000.00000000
  1 26 385    2575.40000000   50000.00000000
  1 28 292    2742.70000000   50000.00000000
  1 28 293    2841.20000000   50000.00000000
  1 28 311    2811.60000000   50000.00000000
  1 28 343    2621.40000000   50000.00000000
  1 28 386    2572.10000000   50000.00000000
  1 29 292    2732.90000000   50000.00000000
  1 29 311    2798.50000000   50000.00000000
  1 29 344    2627.90000000   50000.00000000
  1 30 292    2788.70000000   50000.00000000
  1 30 293    2762.40000000   50000.00000000
  1 30 311    2811.60000000   50000.00000000
  1 30 344    2624.60000000   50000.00000000
  1 31 287    2883.80000000   50000.00000000
  1 31 288    3074.10000000   50000.00000000
  1 31 293    2798.50000000   50000.00000000
  1 31 294    2818.20000000   50000.00000000
  1 31 312    2798.50000000   50000.00000000
  1 31 344    2631.20000000   50000.00000000
  1 31 345    2687.00000000   50000.00000000
  1 32 294    2788.70000000   50000.00000000
  1 32 312    2821.50000000   50000.00000000
  1 32 345    2641.00000000   50000.00000000
  1 33 313    2864.10000000   50000.00000000
  1 33 345    2693.50000000   50000.00000000
  1 37 285    2769.00000000   50000.00000000
  1 37 295    2893.70000000   50000.00000000
  1 33 294    2834.60000000   50000.00000000
  1 33 312    2851.00000000   50000.00000000
  1 34 284    2752.60000000   50000.00000000
  1 34 294    2831.30000000   50000.00000000
  1 34 314    2896.90000000   50000.00000000
  1 34 315    2887.10000000   50000.00000000
  1 34 316    2903.50000000   50000.00000000
  1 34 345    2657.40000000   50000.00000000
  1 35 284    2739.50000000   50000.00000000
  1 35 294    2890.40000000   50000.00000000
  1 35 295    2847.70000000   50000.00000000
  1 35 317    2926.50000000   50000.00000000
  1 35 345    2696.80000000   50000.00000000
  1 35 346    2696.80000000   50000.00000000
  1 35 390    2542.60000000   50000.00000000
  1 37 318    2949.40000000   50000.00000000
  1 37 319    3021.60000000   50000.00000000
  1 37 347    2700.10000000   50000.00000000
  1 36 284    2762.40000000   50000.00000000
  1 36 285    2769.00000000   50000.00000000
  1 36 295    2870.70000000   50000.00000000
  1 36 318    2959.30000000   50000.00000000
  1 36 346    2680.40000000   50000.00000000
  1 38 286    2788.70000000   50000.00000000
  1 38 295    3013.99000000   50000.00000000
  1 38 296    2880.50000000   50000.00000000
  1 38 319    2972.40000000   50000.00000000
  1 38 347    2703.40000000   50000.00000000
  1 39 286    2834.60000000   50000.00000000
  1 39 296    2913.40000000   50000.00000000
  1 39 319    3047.90000000   50000.00000000
  1 39 348    2726.30000000   50000.00000000
  1 40 287    2824.80000000   50000.00000000
  1 40 296    2952.70000000   50000.00000000
  1 40 319    3057.70000000   50000.00000000
  1 40 348    2726.30000000   50000.00000000
  1 40 349    2719.80000000   50000.00000000
  1 41 287    2824.80000000   50000.00000000
  1 41 296    2942.90000000   50000.00000000
  1 41 320    3011.80000000   50000.00000000
  1 41 321    3136.40000000   50000.00000000
  1 41 350    2742.70000000   50000.00000000
  1 41 351    2775.60000000   50000.00000000
  1 42 284    3015.10000000   50000.00000000
  1 42 288    2860.90000000   50000.00000000
  1 42 296    2952.70000000   50000.00000000
  1 42 321    3021.60000000   50000.00000000
  1 42 351    2752.60000000   50000.00000000
  1 47 405    2552.50000000   50000.00000000
  1 47 426    2450.80000000   50000.00000000
  1 43 275    2877.30000000   50000.00000000
  1 43 288    2841.20000000   50000.00000000
  1 43 296    2962.60000000   50000.00000000
  1 43 321    3113.50000000   50000.00000000
  1 43 351    2765.70000000   50000.00000000
  1 44 288    2857.60000000   50000.00000000
  1 44 296    3021.60000000   50000.00000000
  1 44 351    2785.40000000   50000.00000000
  1 44 406    2542.60000000   50000.00000000
  1 44 444    2454.00000000   50000.00000000
  1 48 405    2601.70000000   50000.00000000
  1 45 288    2942.90000000   50000.00000000
  1 45 296    3015.10000000   50000.00000000
  1 45 405    2526.20000000   50000.00000000
  1 45 406    2552.49000000   50000.00000000
  1 45 437    2471.56010000   50000.00000000
  1 46 268    2906.80000000   50000.00000000
  1 46 288    2923.20000000   50000.00000000
  1 46 296    3031.50000000   50000.00000000
  1 46 297    3054.40000000   50000.00000000
  1 46 405    2572.10000000   50000.00000000
  1 46 432    2473.70000000   50000.00000000
  1 46 437    2460.60000000   50000.00000000
  1 46 442    2483.60000000   50000.00000000
  1 47 288    2900.20000000   50000.00000000
  1 47 297    3041.30000000   50000.00000000
  1 48 288    2952.70000000   50000.00000000
  1 48 297    3061.00000000   50000.00000000
  1 49 288    2946.20000000   50000.00000000
  1 49 297    3070.80000000   50000.00000000
  1 49 405    2559.00000000   50000.00000000
  1 49 423    2434.40000000   50000.00000000
  1 50 288    2949.40000000   50000.00000000
  1 50 297    3166.00000000   50000.00000000
  1 50 404    2644.30000000   50000.00000000
  1 50 405    2631.20000000   50000.00000000
  1 50 448    2624.60000000   50000.00000000
  1 51 288    2952.70000000   50000.00000000
  1 51 298    3103.60000000   50000.00000000
  1 51 404    2614.80000000   50000.00000000
  1 52 288    2972.40000000   50000.00000000
  1 52 298    3195.50000000   50000.00000000
  1 52 299    3116.80000000   50000.00000000
  1 52 402    2688.09010000   50000.00000000
  1 52 403    2667.30000000   50000.00000000
  1 58 469    2362.20000000   50000.00000000
  1 53 288    2979.00000000   50000.00000000
  1 53 299    3129.90000000   50000.00000000
  1 53 400    2765.70000000   50000.00000000
  1 53 401    2706.70000000   50000.00000000
  1 53 402    2718.71000000   50000.00000000
  1 54 400    2729.60000000   50000.00000000
  1 54 268    3100.40000000   50000.00000000
  1 54 289    3031.50000000   50000.00000000
  1 54 299    3320.20000000   50000.00000000
  1 54 300    3156.10000000   50000.00000000
  1 54 301    3234.90000000   50000.00000000
  1 59 290    3149.60000000   50000.00000000
  1 59 291    3097.10000000   50000.00000000
  1 59 304    3303.80000000   50000.00000000
  1 55 289    3067.50000000   50000.00000000
  1 55 301    3218.50000000   50000.00000000
  1 55 302    3211.90000000   50000.00000000
  1 55 399    2782.10000000   50000.00000000
  1 55 400    2798.50000000   50000.00000000
  1 56 267    3106.90000000   50000.00000000
  1 56 289    3031.50000000   50000.00000000
  1 56 302    3248.00000000   50000.00000000
  1 56 303    3290.60000000   50000.00000000
  1 57 290    3041.30000000   50000.00000000
  1 57 303    3234.90000000   50000.00000000
  1 57 304    3248.00000000   50000.00000000
  1 57 467    2329.40000000   50000.00000000
  1 57 468    2329.40000000   50000.00000000
  1 57 469    2381.90000000   50000.00000000
  1 57 485    2286.70000000   50000.00000000
  1 57 486    2270.30000000   50000.00000000
  1 57 487    2211.30000000   50000.00000000
  1 57 499    2076.70000000   50000.00000000
  1 57 500    2204.70000000   50000.00000000
  1 58 290    3061.00000000   50000.00000000
  1 58 304    3307.00000000   50000.00000000
  1 58 416    2500.00000000   50000.00000000
  1 58 500    2126.00000000   50000.00000000
  1 59 266    2988.80000000   50000.00000000
  1 59 267    2995.40000000   50000.00000000
  1 59 268    2998.70000000   50000.00000000
  1 59 416    2582.00000000   50000.00000000
  1 59 417    2545.90000000   50000.00000000
  1 59 469    2395.00000000   50000.00000000
  1 59 500    2152.20000000   50000.00000000
  1 67 275    3080.70000000   50000.00000000
  1 60 268    3008.50000000   50000.00000000
  1 60 291    3139.70000000   50000.00000000
  1 63 489    2457.30000000   50000.00000000
  1 63 492    2329.40000000   50000.00000000
  1 60 417    2608.20000000   50000.00000000
  1 61 269    3015.10000000   50000.00000000
  1 61 292    3116.80000000   50000.00000000
  1 61 293    3126.60000000   50000.00000000
  1 61 294    3234.90000000   50000.00000000
  1 61 418    2542.60000000   50000.00000000
  1 61 488    2280.20000000   50000.00000000
  1 62 269    3044.60000000   50000.00000000
  1 62 270    3031.50000000   50000.00000000
  1 62 294    3159.40000000   50000.00000000
  1 62 418    2736.20000000   50000.00000000
  1 67 296    3326.70000000   50000.00000000
  1 62 488    2299.80000000   50000.00000000
  1 62 492    2303.10000000   50000.00000000
  1 63 262    3047.90000000   50000.00000000
  1 63 271    3024.90000000   50000.00000000
  1 63 294    3251.30000000   50000.00000000
  1 63 295    3182.40000000   50000.00000000
  1 63 418    2683.70000000   50000.00000000
  1 63 419    2664.00000000   50000.00000000
  1 64 261    2949.40000000   50000.00000000
  1 64 272    3047.90000000   50000.00000000
  1 64 296    3195.50000000   50000.00000000
  1 64 418    2654.20000000   50000.00000000
  1 65 273    3047.90000000   50000.00000000
  1 65 296    3221.70000000   50000.00000000
  1 65 418    2716.50000000   50000.00000000
  1 66 274    3070.80000000   50000.00000000
  1 66 296    3221.70000000   50000.00000000
  1 66 418    2749.30000000   50000.00000000
  1 67 418    2801.80000000   50000.00000000
  1 68 276    3100.40000000   50000.00000000
  1 68 296    3307.00000000   50000.00000000
  1 72 277    3215.20000000   50000.00000000
  1 72 278    3152.80000000   50000.00000000
  1 72 297    3320.20000000   50000.00000000
  1 72 298    3330.00000000   50000.00000000
  1 77 501    2250.60000000   50000.00000000
  1 69 276    3136.40000000   50000.00000000
  1 69 277    3156.10000000   50000.00000000
  1 69 297    3293.90000000   50000.00000000
  1 70 277    3129.90000000   50000.00000000
  1 70 297    3300.50000000   50000.00000000
  1 71 277    3133.20000000   50000.00000000
  1 71 297    3307.00000000   50000.00000000
  1 73 278    3159.40000000   50000.00000000
  1 73 299    3336.60000000   50000.00000000
  1 74 278    3221.70000000   50000.00000000
  1 74 299    3362.80000000   50000.00000000
  1 74 300    3353.00000000   50000.00000000
  1 75 278    3208.60000000   50000.00000000
  1 75 299    3392.30000000   50000.00000000
  1 75 301    3359.50000000   50000.00000000
  1 75 302    3412.00000000   50000.00000000
  1 76 278    3225.00000000   50000.00000000
  1 76 279    3261.10000000   50000.00000000
  1 76 300    3382.50000000   50000.00000000
  1 76 303    3421.90000000   50000.00000000
  1 76 304    3405.50000000   50000.00000000
  1 76 305    3412.00000000   50000.00000000
  1 77 279    3211.90000000   50000.00000000
  1 77 301    3412.00000000   50000.00000000
  1 77 305    3425.20000000   50000.00000000
  1 77 306    3415.30000000   50000.00000000
  1 78 279    3221.70000000   50000.00000000
  1 78 301    3487.50000000   50000.00000000
  1 78 501    2260.50000000   50000.00000000
  1 78 527    2198.10000000   50000.00000000
  1 78 528    2171.90000000   50000.00000000
  1 84 512    2303.10000000   50000.00000000
  1 84 517    2299.80000000   50000.00000000
  1 84 519    2224.40000000   50000.00000000
  1 84 534    2188.30000000   50000.00000000
  1 84 535    2135.80000000   50000.00000000
  1 81 270    3458.00000000   50000.00000000
  1 81 279    3287.40000000   50000.00000000
  1 79 279    3261.10000000   50000.00000000
  1 79 300    3543.30000000   50000.00000000
  1 79 493    2273.60000000   50000.00000000
  1 79 501    2263.80000000   50000.00000000
  1 80 279    3267.70000000   50000.00000000
  1 80 300    3546.50000000   50000.00000000
  1 80 493    2230.90000000   50000.00000000
  1 81 300    3497.30000000   50000.00000000
  1 82 300    3625.30000000   50000.00000000
  1 83 269    3517.00000000   50000.00000000
  1 83 504    2375.30000000   50000.00000000
  1 83 510    2253.90000000   50000.00000000
  1 83 517    2329.40000000   50000.00000000
  1 83 518    2270.30000000   50000.00000000
  1 83 519    2286.70000000   50000.00000000
  1 84 504    2293.30000000   50000.00000000
  1 92 265    3487.50000000   50000.00000000
  1 85 490    2204.70000000   50000.00000000
  1 85 499    2208.00000000   50000.00000000
  1 85 500    2358.91990000   50000.00000000
  1 85 503    2230.90000000   50000.00000000
  1 85 504    2303.10000000   50000.00000000
  1 85 507    2355.63990000   50000.00000000
  1 85 508    2290.00000000   50000.00000000
  1 85 534    2185.00000000   50000.00000000
  1 86 267    3810.13990000   50000.00000000
  1 86 489    2250.60000000   50000.00000000
  1 86 490    2224.40000000   50000.00000000
  1 86 503    2204.70000000   50000.00000000
  1 86 507    2299.80000000   50000.00000000
  1 86 515    2224.40000000   50000.00000000
  1 94 559    1965.20000000   50000.00000000
  1 87 489    2237.50000000   50000.00000000
  1 87 495    2181.70000000   50000.00000000
  1 87 515    2178.50000000   50000.00000000
  1 87 546    2017.70000000   50000.00000000
  1 88 489    2270.30000000   50000.00000000
  1 88 495    2224.40000000   50000.00000000
  1 89 265    3435.00000000   50000.00000000
  1 89 488    2368.70000000   50000.00000000
  1 89 489    2355.60000000   50000.00000000
  1 89 523    2185.00000000   50000.00000000
  1 89 550    2021.00000000   50000.00000000
  1 89 551    2027.55000000   50000.00000000
  1 90 488    2316.20000000   50000.00000000
  1 90 522    2132.50000000   50000.00000000
  1 90 523    2155.50000000   50000.00000000
  1 90 530    2129.20000000   50000.00000000
  1 91 523    2021.00000000   50000.00000000
  1 91 524    2109.60000000   50000.00000000
  1 91 528    2194.90000000   50000.00000000
  1 91 529    2122.70000000   50000.00000000
  1 91 530    2106.30000000   50000.00000000
  1 92 190    4064.90000000   50000.00000000
  1 92 499    2290.00000000   50000.00000000
  1 92 530    2057.10000000   50000.00000000
  1 92 555    2040.70000000   50000.00000000
  1 93 188    4015.70000000   50000.00000000
  1 93 499    2319.50000000   50000.00000000
  1 93 537    2106.30000000   50000.00000000
  1 93 555    2021.00000000   50000.00000000
  1 94 186    4041.90000000   50000.00000000
  1 94 263    3421.90000000   50000.00000000
  1 94 537    2083.30000000   50000.00000000
  1 95 256    3484.20000000   50000.00000000
  1 95 257    3438.30000000   50000.00000000
  1 97 545    2170.82010000   50000.00000000
  1 97 551    2116.13990000   50000.00000000
  1 97 564    1933.50000000   50000.00000000
  1 95 537    2042.86000000   50000.00000000
  1 96 499    2378.60000000   50000.00000000
  1 96 504    2224.40000000   50000.00000000
  1 96 560    1971.80000000   50000.00000000
  1 96 561    1948.80000000   50000.00000000
  1 97 182    4127.20000000   50000.00000000
  1 97 254    3467.80000000   50000.00000000
  1 98 545    2060.30000000   50000.00000000
  1 99 503    2286.70000000   50000.00000000
  1 97 499    2362.20000000   50000.00000000
  1 97 500    2368.70000000   50000.00000000
  1 97 503    2237.50000000   50000.00000000
  1 97 504    2240.80000000   50000.00000000
  1 98 500    2319.50000000   50000.00000000
  1 98 501    2286.70000000   50000.00000000
  1 98 502    2260.50000000   50000.00000000
  1 98 503    2270.30000000   50000.00000000
  1 98 551    2017.70000000   50000.00000000
  1 98 564    1948.80000000   50000.00000000
  1 99 179    4166.60000000   50000.00000000
  1 99 239    3415.30000000   50000.00000000
  1 99 551    1971.80000000   50000.00000000
  1 100 503    2280.20000000   50000.00000000
  1 100 557    2001.30000000   50000.00000000
  1 100 558    1998.00000000   50000.00000000
  1 101 503    2283.40000000   50000.00000000
  1 101 507    2237.50000000   50000.00000000
  1 101 558    1929.10000000   50000.00000000
  1 101 559    1899.60000000   50000.00000000
  1 101 570    1856.90000000   50000.00000000
  1 101 571    1820.80000000   50000.00000000
  1 102 238    3477.60000000   50000.00000000
  1 102 503    2296.60000000   50000.00000000
  1 102 507    2250.60000000   50000.00000000
  1 106 235    3654.80000000   50000.00000000
  1 109 573    1607.60000000   50000.00000000
  1 109 574    1696.20000000   50000.00000000
  1 103 507    2276.90000000   50000.00000000
  1 104 507    2286.70000000   50000.00000000
  1 104 563    1735.50000000   50000.00000000
  1 104 564    1666.60000000   50000.00000000
  1 104 565    1663.40000000   50000.00000000
  1 104 566    1725.70000000   50000.00000000
  1 104 576    1811.00000000   50000.00000000
  1 104 577    1768.40000000   50000.00000000
  1 111 215    3884.50000000   50000.00000000
  1 111 218    3707.30000000   50000.00000000
  1 105 519    2185.00000000   50000.00000000
  1 105 520    2185.00000000   50000.00000000
  1 105 542    1919.30000000   50000.00000000
  1 105 543    1912.70000000   50000.00000000
  1 105 544    1922.56990000   50000.00000000
  1 105 565    1780.40000000   50000.00000000
  1 105 566    1725.70000000   50000.00000000
  1 105 567    1673.20000000   50000.00000000
  1 105 568    1640.40000000   50000.00000000
  1 105 569    1643.70000000   50000.00000000
  1 105 576    1817.60000000   50000.00000000
  1 106 567    1669.90000000   50000.00000000
  1 106 568    1640.40000000   50000.00000000
  1 106 569    1637.10000000   50000.00000000
  1 106 570    1624.00000000   50000.00000000
  1 106 571    1624.00000000   50000.00000000
  1 106 576    1820.80000000   50000.00000000
  1 107 571    1633.80000000   50000.00000000
  1 107 572    1617.40000000   50000.00000000
  1 108 230    3671.25000000   50000.00000000
  1 108 232    3618.70000000   50000.00000000
  1 108 572    1620.70000000   50000.00000000
  1 108 573    1614.20000000   50000.00000000
  1 109 226    3677.80000000   50000.00000000
  1 109 524    2171.90000000   50000.00000000
  1 110 221    3638.40000000   50000.00000000
  1 110 482    2378.60000000   50000.00000000
  1 110 486    2414.68990000   50000.00000000
  1 110 524    2185.00000000   50000.00000000
  1 110 574    1597.70000000   50000.00000000
  1 110 575    1624.00000000   50000.00000000
  1 111 482    2303.10000000   50000.00000000
  1 111 486    2280.20000000   50000.00000000
  1 111 523    2201.40000000   50000.00000000
  1 111 575    1591.20000000   50000.00000000
  1 111 576    1627.30000000   50000.00000000
  1 111 579    1581.30000000   50000.00000000
  1 111 580    1617.40000000   50000.00000000
  1 112 482    2267.00000000   50000.00000000
  1 112 486    2388.40000000   50000.00000000
  1 112 493    2360.01000000   50000.00000000
  1 112 494    2379.70000000   50000.00000000
  1 112 521    2244.10000000   50000.00000000
  1 112 522    2234.20000000   50000.00000000
  1 112 523    2214.50000000   50000.00000000
  1 112 578    1574.80000000   50000.00000000
  1 112 579    1666.60000000   50000.00000000
  1 112 580    1568.20000000   50000.00000000
  1 112 581    1607.60000000   50000.00000000
  1 112 582    1627.30000000   50000.00000000
  1 113 482    2316.20000000   50000.00000000
  1 113 486    2319.50000000   50000.00000000
  1 113 493    2309.70000000   50000.00000000
  1 113 494    2372.04000000   50000.00000000
  1 113 497    2286.70000000   50000.00000000
  1 113 499    2316.20000000   50000.00000000
  1 113 523    2234.20000000   50000.00000000
  1 114 493    2253.90000000   50000.00000000
  1 114 497    2303.10000000   50000.00000000
  1 114 499    2253.90000000   50000.00000000
  1 114 531    2103.00000000   50000.00000000
  1 114 532    2099.70000000   50000.00000000
  1 114 535    2076.77000000   50000.00000000
  1 114 536    2062.55000000   50000.00000000
  1 115 493    2299.86010000   50000.00000000
  1 115 497    2299.80000000   50000.00000000
  1 115 498    2237.50000000   50000.00000000
  1 115 529    2208.00000000   50000.00000000
  1 115 530    2145.60000000   50000.00000000
  1 115 531    2116.10000000   50000.00000000
  1 115 532    2152.20000000   50000.00000000
  1 116 497    2152.20000000   50000.00000000
  1 116 501    2201.40000000   50000.00000000
  1 116 527    2236.42990000   50000.00000000
  1 116 529    2202.53000000   50000.00000000
  1 117 501    2304.24000000   50000.00000000
  1 117 502    2283.40000000   50000.00000000
  1 117 504    2290.00000000   50000.00000000
  1 117 508    2355.60000000   50000.00000000
  1 117 515    2372.00000000   50000.00000000
  1 117 518    2283.46000000   50000.00000000
  1 117 527    2122.70000000   50000.00000000
  1 118 502    2152.20000000   50000.00000000
  1 118 504    2148.90000000   50000.00000000
  1 118 506    2332.60000000   50000.00000000
  1 118 508    2171.90000000   50000.00000000
  1 118 515    2175.20000000   50000.00000000
  1 118 518    2275.80000000   50000.00000000
  1 118 519    2269.24000000   50000.00000000
  1 118 520    2264.87010000   50000.00000000
  1 118 525    2235.34010000   50000.00000000
  1 118 526    2158.80000000   50000.00000000
  1 119 504    2158.80000000   50000.00000000
  1 119 506    2185.00000000   50000.00000000
  1 119 508    2142.40000000   50000.00000000
  1 119 511    2291.11010000   50000.00000000
  1 119 513    2260.50000000   50000.00000000
  1 119 516    2272.52000000   50000.00000000
  1 119 519    2201.40000000   50000.00000000
  1 119 520    2139.10000000   50000.00000000
  1 119 523    2162.00000000   50000.00000000
  1 119 524    2215.64990000   50000.00000000
  1 120 506    2178.50000000   50000.00000000
  1 120 508    2119.40000000   50000.00000000
  1 120 511    2139.10000000   50000.00000000
  1 120 513    2168.60000000   50000.00000000
  1 120 515    2188.30000000   50000.00000000
  1 120 516    2155.50000000   50000.00000000
  1 120 517    2214.50000000   50000.00000000
  1 120 520    2129.20000000   50000.00000000
  1 120 550    2093.20000000   50000.00000000
  1 120 555    1948.80000000   50000.00000000
  1 121 508    2131.45000000   50000.00000000
  1 121 513    2063.60000000   50000.00000000
  1 121 515    2181.70000000   50000.00000000
  1 121 517    2070.20000000   50000.00000000
  1 124 541    2124.87990000   50000.00000000
  1 125 535    2109.60000000   50000.00000000
  1 125 575    1925.80000000   50000.00000000
  1 126 538    2181.70000000   50000.00000000
  1 126 562    1982.71000000   50000.00000000
  1 127 528    2171.90000000   50000.00000000
  1 128 518    2204.70000000   50000.00000000
  1 128 524    2171.90000000   50000.00000000
  1 130 609    1765.09000000   50000.00000000
  1 131 612    1739.93010000   50000.00000000
  1 132 590    1778.20000000   50000.00000000
  1 135 618    1774.90000000   50000.00000000
  1 142 620    1801.20000000   50000.00000000
  1 142 691    1751.90000000   50000.00000000
  1 143 620    1811.00000000   50000.00000000
  1 143 692    1679.80000000   50000.00000000
  1 144 693    1679.80000000   50000.00000000
  1 144 694    1617.40000000   50000.00000000
  1 144 695    1564.90000000   50000.00000000
  1 145 696    1627.30000000   50000.00000000
  1 145 697    1650.20000000   50000.00000000
  1 145 698    1551.80000000   50000.00000000
  1 145 699    1608.70000000   50000.00000000
  1 145 700    1594.50000000   50000.00000000
  1 145 701    1499.30000000   50000.00000000
  1 145 702    1522.30000000   50000.00000000
  1 145 703    1489.50000000   50000.00000000
  1 145 704    1486.20000000   50000.00000000
  1 151 631    1735.56010000   50000.00000000
  1 151 632    1701.66000000   50000.00000000
  1 151 633    1663.40000000   50000.00000000
  1 151 643    1555.10000000   50000.00000000
  1 151 644    1591.20000000   50000.00000000
  1 151 654    1614.17000000   50000.00000000
  1 146 707    1420.60000000   50000.00000000
  1 147 706    1456.70000000   50000.00000000
  1 147 710    1499.30000000   50000.00000000
  1 147 711    1562.77000000   50000.00000000
  1 154 633    1709.30000000   50000.00000000
  1 148 712    1581.30000000   50000.00000000
  1 148 713    1595.58000000   50000.00000000
  1 148 714    1581.30000000   50000.00000000
  1 149 715    1584.60000000   50000.00000000
  1 150 645    1594.50000000   50000.00000000
  1 150 646    1631.67000000   50000.00000000
  1 150 647    1607.60000000   50000.00000000
  1 150 648    1617.40000000   50000.00000000
  1 150 649    1643.70000000   50000.00000000
  1 150 716    1538.70000000   50000.00000000
  1 150 717    1515.70000000   50000.00000000
  1 151 623    1686.30000000   50000.00000000
  1 151 627    1741.03000000   50000.00000000
  1 151 628    1689.60000000   50000.00000000
  1 151 629    1771.60000000   50000.00000000
  1 151 630    1748.70000000   50000.00000000
  1 151 718    1509.20000000   50000.00000000
  1 152 622    1729.00000000   50000.00000000
  1 152 633    1709.30000000   50000.00000000
  1 152 641    1668.85000000   50000.00000000
  1 152 642    1617.40000000   50000.00000000
  1 152 719    1512.40000000   50000.00000000
  1 152 720    1492.80000000   50000.00000000
  1 153 621    1783.68010000   50000.00000000
  1 153 633    1702.70000000   50000.00000000
  1 153 660    1729.00000000   50000.00000000
  1 153 661    1733.37000000   50000.00000000
  1 153 662    1653.50000000   50000.00000000
  1 153 665    1719.10000000   50000.00000000
  1 153 666    1758.50000000   50000.00000000
  1 153 667    1802.27000000   50000.00000000
  1 153 668    1735.50000000   50000.00000000
  1 153 669    1742.10000000   50000.00000000
  1 153 670    1745.40000000   50000.00000000
  1 153 720    1535.40000000   50000.00000000
  1 154 663    1755.20000000   50000.00000000
  1 154 664    1761.80000000   50000.00000000
  1 154 721    1525.60000000   50000.00000000
  1 186 69    5410.00000000   50000.00000000
  1 188 66    5679.10000000   50000.00000000
  1 189 65    5705.30000000   50000.00000000
  1 190 63    5577.40000000   50000.00000000
  1 190 64    5784.10000000   50000.00000000
  1 191 62    5668.18020000   50000.00000000
  1 192 60    5593.80000000   50000.00000000
  1 192 61    5633.10000000   50000.00000000
  1 193 59    5682.30000000   50000.00000000
  1 201 60    6446.80000000   50000.00000000
  1 202 57    6118.70000000   50000.00000000
  1 202 58    6161.30000000   50000.00000000
  1 202 60    6446.80000000   50000.00000000
  1 203 58    6204.00000000   50000.00000000
  1 203 62    6354.90000000   50000.00000000
  1 204 62    6325.40000000   50000.00000000
  1 204 65    6013.70000000   50000.00000000
  1 205 52    6407.40000000   50000.00000000
  1 205 53    6459.90000000   50000.00000000
  1 205 62    6361.50000000   50000.00000000
  1 205 65    5977.60000000   50000.00000000
  1 206 53    6709.20000000   50000.00000000
  1 206 62    6361.50000000   50000.00000000
  1 206 64    6092.40000000   50000.00000000
  1 224 46    6420.50000000   50000.00000000
  1 224 49    6361.50000000   50000.00000000
  1 223 45    6469.70000000   50000.00000000
  1 223 49    6305.70000000   50000.00000000
  1 225 45    6450.10000000   50000.00000000
  1 225 46    6492.75980000   50000.00000000
  1 226 45    6522.20000000   50000.00000000
  1 285 47    7108.46000000   50000.00000000
  1 285 54    6814.20000000   50000.00000000
  1 285 58    6561.60000000   50000.00000000
  1 285 59    6492.70000000   50000.00000000
  1 284 66    6278.41990000   50000.00000000
  1 284 67    6200.70000000   50000.00000000
  1 286 54    6774.90000000   50000.00000000
  1 286 69    6095.70000000   50000.00000000
  1 287 48    6843.70000000   50000.00000000
  1 287 49    7046.12990000   50000.00000000
  1 287 50    6958.60000000   50000.00000000
  1 287 51    6914.89990000   50000.00000000
  1 287 55    6597.70000000   50000.00000000
  1 287 69    6066.20000000   50000.00000000
  1 290 79    6033.40000000   50000.00000000
  1 291 72    6046.56980000   50000.00000000
  1 296 86    5961.27000000   50000.00000000
  1 299 187    4707.90000000   50000.00000000
  1 292 94    5807.00000000   50000.00000000
  1 292 101    5459.30000000   50000.00000000
  1 294 80    5843.10000000   50000.00000000
  1 294 91    5810.30000000   50000.00000000
  1 295 83    5803.70000000   50000.00000000
  1 305 160    5075.40000000   50000.00000000
  1 298 183    4711.20000000   50000.00000000
  1 298 184    4758.29980000   50000.00000000
  1 298 185    4750.64010000   50000.00000000
  1 299 186    4589.80000000   50000.00000000
  1 300 188    4678.40000000   50000.00000000
  1 300 191    4677.37010000   50000.00000000
  1 300 192    4593.10000000   50000.00000000
  1 300 193    4645.60000000   50000.00000000
  1 301 194    4685.02980000   50000.00000000