# File generated by Flopy version 3.3.7 on 04/18/2023 at 16:55:47.
BEGIN OPTIONS
END OPTIONS

BEGIN DIMENSIONS
  MAXHFB  69
END DIMENSIONS

BEGIN PERIOD  1
  1 417 559  1 416 559       0.00100000
  1 417 560  1 416 560       0.00100000
  1 417 561  1 416 561       0.00100000
  1 417 562  1 416 562       0.00100000
  1 417 563  1 416 563       0.00100000
  1 417 564  1 416 564       0.00100000
  1 418 565  1 417 565       0.00100000
  1 418 566  1 417 566       0.00100000
  1 418 567  1 417 567       0.00100000
  1 418 568  1 417 568       0.00100000
  1 418 569  1 417 569       0.00100000
  1 418 570  1 417 570       0.00100000
  1 418 571  1 417 571       0.00100000
  1 418 572  1 417 572       0.00100000
  1 418 573  1 417 573       0.00100000
  1 419 551  1 418 551       0.00100000
  1 419 552  1 418 552       0.00100000
  1 419 553  1 418 553       0.00100000
  1 419 554  1 418 554       0.00100000
  1 419 555  1 418 555       0.00100000
  1 419 556  1 418 556       0.00100000
  1 419 557  1 418 557       0.00100000
  1 419 558  1 418 558       0.00100000
  1 419 574  1 418 574       0.00100000
  1 419 575  1 418 575       0.00100000
  1 419 582  1 418 582       0.00100000
  1 419 583  1 418 583       0.00100000
  1 419 584  1 418 584       0.00100000
  1 419 585  1 418 585       0.00100000
  1 419 586  1 418 586       0.00100000
  1 419 587  1 418 587       0.00100000
  1 419 588  1 418 588       0.00100000
  1 419 589  1 418 589       0.00100000
  1 419 590  1 418 590       0.00100000
  1 419 591  1 418 591       0.00100000
  1 420 579  1 419 579       0.00100000
  1 420 580  1 419 580       0.00100000
  1 420 581  1 419 581       0.00100000
  1 420 592  1 419 592       0.00100000
  1 420 593  1 419 593       0.00100000
  1 420 594  1 419 594       0.00100000
  1 420 595  1 419 595       0.00100000
  1 420 596  1 419 596       0.00100000
  1 420 597  1 419 597       0.00100000
  1 420 598  1 419 598       0.00100000
  1 420 599  1 419 599       0.00100000
  1 420 600  1 419 600       0.00100000
  1 420 601  1 419 601       0.00100000
  1 420 602  1 419 602       0.00100000
  1 420 603  1 419 603       0.00100000
  1 420 607  1 419 607       0.00100000
  1 420 608  1 419 608       0.00100000
  1 420 609  1 419 609       0.00100000
  1 420 610  1 419 610       0.00100000
  1 420 611  1 419 611       0.00100000
  1 420 612  1 419 612       0.00100000
  1 420 613  1 419 613       0.00100000
  1 420 614  1 419 614       0.00100000
  1 420 615  1 419 615       0.00100000
  1 420 616  1 419 616       0.00100000
  1 420 617  1 419 617       0.00100000
  1 422 622  1 421 622       0.00100000
  1 422 623  1 421 623       0.00100000
  1 422 624  1 421 624       0.00100000
  1 423 625  1 422 625       0.00100000
  1 421 618  1 420 618       0.00100000
  1 421 619  1 420 619       0.00100000
  1 421 620  1 420 620       0.00100000
  1 421 621  1 420 621       0.00100000
END PERIOD  1

