# sms8 input file, prepared by mf5to15 on 10/26/2015 at 8:33:47.

begin options
  print_option  summary
  complexity  moderate
end options

begin nonlinear
  outer_dvclose   0.05
  outer_maximum  2000
  under_relaxation  dbd
  under_relaxation_theta 0.900000e+00
  under_relaxation_kappa 0.100000e-04
  under_relaxation_gamma 0.000000e+00
  under_relaxation_momentum 0.100000e+00
end nonlinear

begin linear
  inner_maximum  200
  inner_dvclose   0.50000004e-03
  inner_rclose    1.e10 50000.000    
  linear_acceleration  bicgstab
  relaxation_factor 0.
  preconditioner_levels 3
  preconditioner_drop_tolerance 0.001
  number_orthogonalizations 5
  reordering_method rcm
end linear
