# File generated by Flopy version 3.3.7 on 04/18/2023 at 16:55:44.
BEGIN options
  PRINT_OPTION  summary
  COMPLEXITY  moderate
END options

BEGIN nonlinear
  OUTER_DVCLOSE       0.05000000
  OUTER_MAXIMUM  2000
  UNDER_RELAXATION  dbd
  UNDER_RELAXATION_GAMMA       0.00000000
  UNDER_RELAXATION_THETA       0.90000000
  UNDER_RELAXATION_KAPPA  1.00000000E-05
  UNDER_RELAXATION_MOMENTUM       0.10000000
END nonlinear

BEGIN linear
  INNER_MAXIMUM  200
  INNER_DVCLOSE  5.00000040E-04
  inner_rclose  1.00000000E+10  50000.000
  LINEAR_ACCELERATION  bicgstab
  RELAXATION_FACTOR       0.00000000
  PRECONDITIONER_LEVELS  3
  PRECONDITIONER_DROP_TOLERANCE       0.00100000
  NUMBER_ORTHOGONALIZATIONS  5
  REORDERING_METHOD  rcm
END linear

