# File generated by Flopy version 3.3.7 on 04/18/2023 at 16:55:44.
BEGIN Options
  NEWTON  UNDER_RELAXATION
END Options

BEGIN PACKAGES
  dis6  v6.dis
  ic6  v6.ic
  npf6  v6.npf
  hfb6  v6.hfb
  sto6  v6.sto
  chd6  v6.chd
  oc6  v6.oc
  rch6  v6.rch
  sfr6  v6.sfr
  drn6  v6.drn
  evt6  v6.evt
END PACKAGES

