# OC8 input file, prepared by mf5to15 on 10/26/2015 at 8:33:39.

BEGIN Options
  BUDGET FILEOUT  nhppd5-1.cbb
  HEAD FILEOUT  nhppd5-1.hds
  HEAD PRINT_FORMAT  COLUMNS 10  WIDTH 11  DIGITS 4  GENERAL
END Options

BEGIN PERIOD 1
  PRINT BUDGET STEPS 1 5 10 15 25 50
  SAVE HEAD STEPS 1
  SAVE BUDGET STEPS 1
END PERIOD

BEGIN PERIOD 2
  PRINT BUDGET LAST
END PERIOD

BEGIN PERIOD 8
  PRINT BUDGET LAST
  SAVE BUDGET LAST
  PRINT HEAD LAST
  SAVE HEAD LAST
END PERIOD
