# File generated by Flopy version 3.3.7 on 04/18/2023 at 16:55:48.
BEGIN Options
  BUDGET  FILEOUT  nhppd5-1.cbb
  HEAD  FILEOUT  nhppd5-1.hds
  HEAD  PRINT_FORMAT  COLUMNS  10  WIDTH  11  DIGITS  4  general
END Options

BEGIN PERIOD  1
  SAVE  head  steps  1
  SAVE  budget  steps  1
  PRINT  budget  steps  1
END PERIOD  1

