# SFR8 input file, prepared by mf5to15 on 10/26/2015 at 8:33:44.

BEGIN Options
  SAVE_FLOWS
  UNIT_CONVERSION    128390.40 
  PRINT_STAGE
  PRINT_FLOWS   
END Options

BEGIN Dimensions
  NREACHES  10461
END Dimensions

BEGIN PACKAGEDATA
  # rno cellid rlen           rwid            rgrd            rbtp            rbth            rbhk             man     ncon  ustrf ndv
  1 1 249 48   2599.3323       5.0000000      0.54347287E-02   6778.5562       1.0000000       6.4695640      0.29999999E-01 1 1.0000 0
  2 1 248 48   1185.6447       5.0000000      0.54347287E-02   6768.2710       1.0000000       6.4695640      0.29999999E-01 2 1.0000 0
  3 1 248 49   3312.5583       5.0000000      0.54347287E-02   6756.0479       1.0000000       6.4695640      0.29999999E-01 2 1.0000 0
  4 1 248 50   3910.9915       5.0000000      0.54347287E-02   6736.4189       1.0000000       6.4695640      0.29999999E-01 2 1.0000 0
  5 1 248 51   3321.0947       5.0000000      0.54347287E-02   6716.7666       1.0000000       6.4695640      0.29999999E-01 2 1.0000 0
  6 1 248 52   3333.9775       5.0000000      0.54347287E-02   6698.6826       1.0000000       6.4695640      0.29999999E-01 2 1.0000 0
  7 1 248 53   3338.9058       5.0000000      0.54347287E-02   6680.5498       1.0000000       6.4695640      0.29999999E-01 2 1.0000 0
  8 1 248 54   3812.9895       5.0000000      0.54347287E-02   6661.1152       1.0000000       6.4695640      0.29999999E-01 2 1.0000 0
  9 1 248 55   2549.1177       5.0000000      0.54347287E-02   6643.8271       1.0000000       6.4695640      0.29999999E-01 2 1.0000 0
  10 1 248 55   959.56873       5.0000000      0.52119326E-02   6634.3999       1.0000000       6.4695640      0.29999999E-01 2 1.0000 0
  11 1 248 56   3716.1426       5.0000000      0.52119326E-02   6622.2148       1.0000000       6.4695640      0.29999999E-01 2 1.0000 0
  12 1 247 57   3746.6787       5.0000000      0.52119326E-02   6602.7671       1.0000000       6.4695640      0.29999999E-01 2 1.0000 0
  13 1 247 58   5283.6128       5.0000000      0.52119326E-02   6579.2344       1.0000000       6.4695640      0.29999999E-01 2 1.0000 0
  14 1 247 59   3345.7651       5.0000000      0.52119326E-02   6556.7466       1.0000000       6.4695640      0.29999999E-01 2 1.0000 0
  15 1 247 60   4131.1577       5.0000000      0.52119326E-02   6537.2622       1.0000000       6.4695640      0.29999999E-01 2 1.0000 0
  16 1 246 61   3474.6633       5.0000000      0.52119326E-02   6517.4414       1.0000000       6.4695640      0.29999999E-01 2 1.0000 0
  17 1 246 62   3817.2356       5.0000000      0.52119326E-02   6498.4390       1.0000000       6.4695640      0.29999999E-01 2 1.0000 0
  18 1 246 63   3301.6750       5.0000000      0.52119326E-02   6479.8877       1.0000000       6.4695640      0.29999999E-01 2 1.0000 0
  19 1 247 64   5644.9121       5.0000000      0.52119326E-02   6456.5728       1.0000000       6.4695640      0.29999999E-01 2 1.0000 0
  20 1 247 65   3427.8518       5.0000000      0.52119326E-02   6432.9297       1.0000000       6.4695640      0.29999999E-01 2 1.0000 0
  21 1 247 66   3674.7473       5.0000000      0.52119326E-02   6414.4204       1.0000000       6.4695640      0.29999999E-01 2 1.0000 0
  22 1 247 67   4369.9463       5.0000000      0.52119326E-02   6393.4565       1.0000000       6.4695640      0.29999999E-01 2 1.0000 0
  23 1 247 68   1681.2892       5.0000000      0.52119326E-02   6377.6870       1.0000000       6.4695640      0.29999999E-01 2 1.0000 0
  24 1 248 68   1840.7701       5.0000000      0.52119326E-02   6368.5088       1.0000000       6.4695640      0.29999999E-01 2 1.0000 0
  25 1 248 69   4005.7412       5.0000000      0.52119326E-02   6353.2729       1.0000000       6.4695640      0.29999999E-01 2 1.0000 0
  26 1 248 70   3280.9895       5.0000000      0.52119326E-02   6334.2837       1.0000000       6.4695640      0.29999999E-01 2 1.0000 0
  27 1 248 71   3566.8289       5.0000000      0.52119326E-02   6316.4385       1.0000000       6.4695640      0.29999999E-01 2 1.0000 0
  28 1 249 72   3362.2732       5.0000000      0.52119326E-02   6298.3818       1.0000000       6.4695640      0.29999999E-01 2 1.0000 0
  29 1 249 73   3623.3909       5.0000000      0.52119326E-02   6280.1772       1.0000000       6.4695640      0.29999999E-01 2 1.0000 0
  30 1 250 73   1901.3568       5.0000000      0.52119326E-02   6265.7798       1.0000000       6.4695640      0.29999999E-01 2 1.0000 0
  31 1 250 74   2773.7844       5.0000000      0.52119326E-02   6253.5967       1.0000000       6.4695640      0.29999999E-01 2 1.0000 0
  32 1 251 74   2400.9836       5.0000000      0.52119326E-02   6240.1113       1.0000000       6.4695640      0.29999999E-01 2 1.0000 0
  33 1 251 75   3990.3579       5.0000000      0.52119326E-02   6223.4561       1.0000000       6.4695640      0.29999999E-01 2 1.0000 0
  34 1 251 76   3797.4998       5.0000000      0.52119326E-02   6203.1611       1.0000000       6.4695640      0.29999999E-01 2 1.0000 0
  35 1 251 77   2508.7703       5.0000000      0.52119326E-02   6186.7271       1.0000000       6.4695640      0.29999999E-01 2 1.0000 0
  36 1 252 77   1400.5153       5.0000000      0.52119326E-02   6176.5396       1.0000000       6.4695640      0.29999999E-01 2 1.0000 0
  37 1 252 78   3325.6125       5.0000000      0.52119326E-02   6164.2236       1.0000000       6.4695640      0.29999999E-01 2 1.0000 0
  38 1 252 79   4883.2954       5.0000000      0.52119326E-02   6142.8311       1.0000000       6.4695640      0.29999999E-01 2 1.0000 0
  39 1 253 80   4092.3757       5.0000000      0.52119326E-02   6119.4409       1.0000000       6.4695640      0.29999999E-01 2 1.0000 0
  40 1 253 81   4310.8140       5.0000000      0.52119326E-02   6097.5425       1.0000000       6.4695640      0.29999999E-01 2 1.0000 0
  41 1 254 82   3667.1038       5.0000000      0.52119326E-02   6076.7524       1.0000000       6.4695640      0.29999999E-01 2 1.0000 0
  42 1 254 83   3617.8699       5.0000000      0.52119326E-02   6057.7681       1.0000000       6.4695640      0.29999999E-01 2 1.0000 0
  43 1 254 84   3907.1753       5.0000000      0.52119326E-02   6038.1582       1.0000000       6.4695640      0.29999999E-01 2 1.0000 0
  44 1 254 85   1577.8757       5.0000000      0.52119326E-02   6023.8643       1.0000000       6.4695640      0.29999999E-01 2 1.0000 0
  45 1 255 85   3529.5229       5.0000000      0.52119326E-02   6010.5547       1.0000000       6.4695640      0.29999999E-01 2 1.0000 0
  46 1 255 86   1829.1877       5.0000000      0.52119326E-02   5996.5898       1.0000000       6.4695640      0.29999999E-01 2 1.0000 0
  47 1 256 86   1709.5438       5.0000000      0.52119326E-02   5987.3682       1.0000000       6.4695640      0.29999999E-01 2 1.0000 0
  48 1 256 87   4315.8179       5.0000000      0.52119326E-02   5971.6660       1.0000000       6.4695640      0.29999999E-01 2 1.0000 0
  49 1 256 88   3831.8188       5.0000000      0.52119326E-02   5950.4336       1.0000000       6.4695640      0.29999999E-01 2 1.0000 0
  50 1 256 89   4666.6812       5.0000000      0.52119326E-02   5928.2866       1.0000000       6.4695640      0.29999999E-01 2 1.0000 0
  51 1 256 90   4019.1414       5.0000000      0.52119326E-02   5905.6519       1.0000000       6.4695640      0.29999999E-01 2 1.0000 0
  52 1 257 91   4973.4092       5.0000000      0.52119326E-02   5882.2178       1.0000000       6.4695640      0.29999999E-01 2 1.0000 0
  53 1 258 92   3835.3828       5.0000000      0.52119326E-02   5859.2622       1.0000000       6.4695640      0.29999999E-01 2 1.0000 0
  54 1 258 93   700.04211       5.0000000      0.52119326E-02   5847.4429       1.0000000       6.4695640      0.29999999E-01 2 1.0000 0
  55 1 238 51   3281.5906       5.0270572      0.54781088E-02   6463.6094       1.0000000       6.4695640      0.29999999E-01 1 1.0000 0
  56 1 238 52   3312.0049       5.0814219      0.54781088E-02   6445.5488       1.0000000       6.4695640      0.29999999E-01 2 1.0000 0
  57 1 238 53   4100.1411       5.1425357      0.54781088E-02   6425.2466       1.0000000       6.4695640      0.29999999E-01 2 1.0000 0
  58 1 238 54   3532.2830       5.2054658      0.54781088E-02   6404.3413       1.0000000       6.4695640      0.29999999E-01 2 1.0000 0
  59 1 238 55   3507.3818       5.2635088      0.54781088E-02   6385.0591       1.0000000       6.4695640      0.29999999E-01 2 1.0000 0
  60 1 238 56   4146.2285       5.3266134      0.54781088E-02   6364.0952       1.0000000       6.4695640      0.29999999E-01 2 1.0000 0
  61 1 238 57   3303.1416       5.3880343      0.54781088E-02   6343.6914       1.0000000       6.4695640      0.29999999E-01 2 1.0000 0
  62 1 238 58   4814.5981       5.4549661      0.54781088E-02   6321.4561       1.0000000       6.4695640      0.29999999E-01 2 1.0000 0
  63 1 238 59   4563.7441       5.5322914      0.54781088E-02   6295.7686       1.0000000       6.4695640      0.29999999E-01 2 1.0000 0
  64 1 238 60   3337.3223       5.5974364      0.54781088E-02   6274.1270       1.0000000       6.4695640      0.29999999E-01 2 1.0000 0
  65 1 238 61   3574.8225       5.6544275      0.54781088E-02   6255.1943       1.0000000       6.4695640      0.29999999E-01 2 1.0000 0
  66 1 237 62   3313.0603       5.7112193      0.54781088E-02   6236.3281       1.0000000       6.4695640      0.29999999E-01 2 1.0000 0
  67 1 237 63   4483.1538       5.7754998      0.54781088E-02   6214.9736       1.0000000       6.4695640      0.29999999E-01 2 1.0000 0
  68 1 237 64   3570.1804       5.8419003      0.54781088E-02   6192.9150       1.0000000       6.4695640      0.29999999E-01 2 1.0000 0
  69 1 238 65   4518.5068       5.9085922      0.54781088E-02   6170.7598       1.0000000       6.4695640      0.29999999E-01 2 1.0000 0
  70 1 238 66   4176.6230       5.9802847      0.54781088E-02   6146.9434       1.0000000       6.4695640      0.29999999E-01 2 1.0000 0
  71 1 238 67   3489.6431       6.0434937      0.54781088E-02   6125.9453       1.0000000       6.4695640      0.29999999E-01 2 1.0000 0
  72 1 237 68   3893.7688       6.1043706      0.54781088E-02   6105.7217       1.0000000       6.4695640      0.29999999E-01 2 1.0000 0
  73 1 237 69   1736.4293       6.1507921      0.54781088E-02   6090.3003       1.0000000       6.4695640      0.29999999E-01 2 1.0000 0
  74 1 236 69   2090.6729       6.1823473      0.54781088E-02   6079.8174       1.0000000       6.4695640      0.29999999E-01 2 1.0000 0
  75 1 236 70   3706.8066       6.2301478      0.54781088E-02   6063.9380       1.0000000       6.4695640      0.29999999E-01 2 1.0000 0
  76 1 236 71   3514.9897       6.2896924      0.54781088E-02   6044.1572       1.0000000       6.4695640      0.29999999E-01 2 1.0000 0
  77 1 236 72   3459.7009       6.3471994      0.54781088E-02   6025.0527       1.0000000       6.4695640      0.29999999E-01 2 1.0000 0
  78 1 235 73   3607.8704       6.4054723      0.54781088E-02   6005.6943       1.0000000       6.4695640      0.29999999E-01 2 1.0000 0
  79 1 235 74   3283.8794       6.4622955      0.54781088E-02   5986.8174       1.0000000       6.4695640      0.29999999E-01 2 1.0000 0
  80 1 235 75   3299.2083       6.5165739      0.54781088E-02   5968.7861       1.0000000       6.4695640      0.29999999E-01 2 1.0000 0
  81 1 235 76   3328.3386       6.5712185      0.54781088E-02   5950.6328       1.0000000       6.4695640      0.29999999E-01 2 1.0000 0
  82 1 235 77   3335.1714       6.6261597      0.54781088E-02   5932.3813       1.0000000       6.4695640      0.29999999E-01 2 1.0000 0
  83 1 235 78   3825.1931       6.6851978      0.54781088E-02   5912.7686       1.0000000       6.4695640      0.29999999E-01 2 1.0000 0
  84 1 234 79   3447.5237       6.7451620      0.54781088E-02   5892.8481       1.0000000       6.4695640      0.29999999E-01 2 1.0000 0
  85 1 234 80   3374.4739       6.8014102      0.54781088E-02   5874.1621       1.0000000       6.4695640      0.29999999E-01 2 1.0000 0
  86 1 235 81   3746.6545       6.8601246      0.54781088E-02   5854.6572       1.0000000       6.4695640      0.29999999E-01 2 1.0000 0
  87 1 235 82   3424.7803       6.9192538      0.54781088E-02   5835.0142       1.0000000       6.4695640      0.29999999E-01 2 1.0000 0
  88 1 235 83   3619.8125       6.9773374      0.54781088E-02   5815.7188       1.0000000       6.4695640      0.29999999E-01 2 1.0000 0
  89 1 235 84   3837.3457       7.0388222      0.54781088E-02   5795.2930       1.0000000       6.4695640      0.29999999E-01 2 1.0000 0
  90 1 235 85   3933.4326       7.1028929      0.54781088E-02   5774.0088       1.0000000       6.4695640      0.29999999E-01 2 1.0000 0
  91 1 235 86   4732.5386       7.1743450      0.54781088E-02   5750.2720       1.0000000       6.4695640      0.29999999E-01 2 1.0000 0
  92 1 236 87   3475.3923       7.2420201      0.54781088E-02   5727.7900       1.0000000       6.4695640      0.29999999E-01 2 1.0000 0
  93 1 236 88   3999.1221       7.3036480      0.54781088E-02   5707.3169       1.0000000       6.4695640      0.29999999E-01 2 1.0000 0
  94 1 236 89   3851.2761       7.3683758      0.54781088E-02   5685.8145       1.0000000       6.4695640      0.29999999E-01 2 1.0000 0
  95 1 235 90   3521.3164       7.4291630      0.54781088E-02   5665.6201       1.0000000       6.4695640      0.29999999E-01 2 1.0000 0
  96 1 236 91   4567.7705       7.4958587      0.54781088E-02   5643.4639       1.0000000       6.4695640      0.29999999E-01 2 1.0000 0
  97 1 236 92   3960.7412       7.5661774      0.54781088E-02   5620.1040       1.0000000       6.4695640      0.29999999E-01 2 1.0000 0
  98 1 236 93   3485.0261       7.6275682      0.54781088E-02   5599.7095       1.0000000       6.4695640      0.29999999E-01 2 1.0000 0
  99 1 235 94   3794.9734       7.6875925      0.54781088E-02   5579.7690       1.0000000       6.4695640      0.29999999E-01 2 1.0000 0
  100 1 235 95   5561.8281       7.7647400      0.54781088E-02   5554.1406       1.0000000       6.4695640      0.29999999E-01 2 1.0000 0
  101 1 235 96   4102.9419       7.8444271      0.54781088E-02   5527.6680       1.0000000       6.4695640      0.29999999E-01 2 1.0000 0
  102 1 235 97   1712.3481       7.8923750      0.54781088E-02   5511.7397       1.0000000       6.4695640      0.29999999E-01 2 1.0000 0
  103 1 234 97   2588.8086       7.9278383      0.54781088E-02   5499.9585       1.0000000       6.4695640      0.29999999E-01 2 1.0000 0
  104 1 235 98   3589.2207       7.9787769      0.54781088E-02   5483.0366       1.0000000       6.4695640      0.29999999E-01 2 1.0000 0
  105 1 234 99   5044.0996       8.0499592      0.54781088E-02   5459.3896       1.0000000       6.4695640      0.29999999E-01 2 1.0000 0
  106 1 234 100   3678.7605       8.1218796      0.54781088E-02   5435.4971       1.0000000       6.4695640      0.29999999E-01 2 1.0000 0
  107 1 234 101   4306.0308       8.1877155      0.54781088E-02   5413.6265       1.0000000       6.4695640      0.29999999E-01 2 1.0000 0
  108 1 234 102   3733.3667       8.2540016      0.54781088E-02   5391.6060       1.0000000       6.4695640      0.29999999E-01 2 1.0000 0
  109 1 234 103   2072.8420       8.3018742      0.54781088E-02   5375.7026       1.0000000       6.4695640      0.29999999E-01 2 1.0000 0
  110 1 233 103   1628.5378       8.3323917      0.54781088E-02   5365.5645       1.0000000       6.4695640      0.29999999E-01 2 1.0000 0
  111 1 233 104   3496.3359       8.3746471      0.54781088E-02   5351.5269       1.0000000       6.4695640      0.29999999E-01 2 1.0000 0
  112 1 234 105   3712.2058       8.4340820      0.54781088E-02   5331.7822       1.0000000       6.4695640      0.29999999E-01 2 1.0000 0
  113 1 233 106   4390.7490       8.5008917      0.54781088E-02   5309.5879       1.0000000       6.4695640      0.29999999E-01 2 1.0000 0
  114 1 233 107   3408.8701       8.5652008      0.54781088E-02   5288.2246       1.0000000       6.4695640      0.29999999E-01 2 1.0000 0
  115 1 232 108   5149.3467       8.6357641      0.54781088E-02   5264.7832       1.0000000       6.4695640      0.29999999E-01 2 1.0000 0
  116 1 231 109   3554.9004       8.7075310      0.54781088E-02   5240.9414       1.0000000       6.4695640      0.29999999E-01 2 1.0000 0
  117 1 231 110   3349.1133       8.7644558      0.54781088E-02   5222.0312       1.0000000       6.4695640      0.29999999E-01 2 1.0000 0
  118 1 231 111   3677.6345       8.8223915      0.54781088E-02   5202.7847       1.0000000       6.4695640      0.29999999E-01 2 1.0000 0
  119 1 230 112   4624.3267       8.8908424      0.54781088E-02   5180.0449       1.0000000       6.4695640      0.29999999E-01 2 1.0000 0
  120 1 229 113   3703.6140       8.9595070      0.54781088E-02   5157.2344       1.0000000       6.4695640      0.29999999E-01 2 1.0000 0
  121 1 229 114   4078.9031       9.0236750      0.54781088E-02   5135.9175       1.0000000       6.4695640      0.29999999E-01 2 1.0000 0
  122 1 229 115   3810.0498       9.0887203      0.54781088E-02   5114.3091       1.0000000       6.4695640      0.29999999E-01 2 1.0000 0
  123 1 229 116   4884.1265       9.1604042      0.54781088E-02   5090.4956       1.0000000       6.4695640      0.29999999E-01 2 1.0000 0
  124 1 229 117   3779.3516       9.2318363      0.54781088E-02   5066.7656       1.0000000       6.4695640      0.29999999E-01 2 1.0000 0
  125 1 229 118   3501.4902       9.2918663      0.54781088E-02   5046.8232       1.0000000       6.4695640      0.29999999E-01 2 1.0000 0
  126 1 229 119   3564.9495       9.3501301      0.54781088E-02   5027.4678       1.0000000       6.4695640      0.29999999E-01 2 1.0000 0
  127 1 229 120   4173.0947       9.4139309      0.54781088E-02   5006.2729       1.0000000       6.4695640      0.29999999E-01 2 1.0000 0
  128 1 229 121   1812.7098       9.4632845      0.54781088E-02   4989.8774       1.0000000       6.4695640      0.29999999E-01 2 1.0000 0
  129 1 230 121   2606.7620       9.4997234      0.54781088E-02   4977.7725       1.0000000       6.4695640      0.29999999E-01 2 1.0000 0
  130 1 230 122   3335.6052       9.5487194      0.54781088E-02   4961.4956       1.0000000       6.4695640      0.29999999E-01 2 1.0000 0
  131 1 231 122   2032.4402       9.5929794      0.54781088E-02   4946.7925       1.0000000       6.4695640      0.29999999E-01 2 1.0000 0
  132 1 231 123   3575.8889       9.6392202      0.54781088E-02   4931.4312       1.0000000       6.4695640      0.29999999E-01 2 1.0000 0
  133 1 231 124   1520.8879       9.6812439      0.54781088E-02   4917.4707       1.0000000       6.4695640      0.29999999E-01 2 1.0000 0
  134 1 232 124   2501.1587       9.7144060      0.54781088E-02   4906.4541       1.0000000       6.4695640      0.29999999E-01 2 1.0000 0
  135 1 232 125   3073.7390       9.7603712      0.54781088E-02   4891.1841       1.0000000       6.4695640      0.29999999E-01 2 1.0000 0
  136 1 233 125   2441.5447       9.8058453      0.54781088E-02   4876.0776       1.0000000       6.4695640      0.29999999E-01 2 1.0000 0
  137 1 233 126   4773.2920       9.8653326      0.54781088E-02   4856.3154       1.0000000       6.4695640      0.29999999E-01 2 1.0000 0
  138 1 234 126   1495.5627       9.9170189      0.54781088E-02   4839.1450       1.0000000       6.4695640      0.29999999E-01 2 1.0000 0
  139 1 234 127   4284.3442       9.9646759      0.54781088E-02   4823.3135       1.0000000       6.4695640      0.29999999E-01 2 1.0000 0
  140 1 219 52   4809.3940       5.1480560      0.42719957E-02   6134.6270       1.0000000       6.4695640      0.29999999E-01 1 1.0000 0
  141 1 219 53   4943.0776       5.4482832      0.42719957E-02   6113.7959       1.0000000       6.4695640      0.29999999E-01 2 1.0000 0
  142 1 219 54   1312.4938       5.6408591      0.42719957E-02   6100.4341       1.0000000       6.4695640      0.29999999E-01 2 1.0000 0
  143 1 218 54   3917.9480       5.8018770      0.42719957E-02   6089.2617       1.0000000       6.4695640      0.29999999E-01 2 1.0000 0
  144 1 217 54   1151.3724       5.9579344      0.42719957E-02   6078.4336       1.0000000       6.4695640      0.29999999E-01 2 1.0000 0
  145 1 217 55   3568.7542       6.1032424      0.42719957E-02   6068.3516       1.0000000       6.4695640      0.29999999E-01 2 1.0000 0
  146 1 217 56   3706.4861       6.3272085      0.42719957E-02   6052.8115       1.0000000       6.4695640      0.29999999E-01 2 1.0000 0
  147 1 216 56   2828.2566       6.5283790      0.42719957E-02   6038.8535       1.0000000       6.4695640      0.29999999E-01 2 1.0000 0
  148 1 216 57   2613.2649       6.6958947      0.42719957E-02   6027.2305       1.0000000       6.4695640      0.29999999E-01 2 1.0000 0
  149 1 215 57   3070.1462       6.8708568      0.42719957E-02   6015.0903       1.0000000       6.4695640      0.29999999E-01 2 1.0000 0
  150 1 215 58   5000.6953       7.1193156      0.42719957E-02   5997.8511       1.0000000       6.4695640      0.29999999E-01 2 1.0000 0
  151 1 215 59   1395.8169       7.3162308      0.42719957E-02   5984.1885       1.0000000       6.4695640      0.29999999E-01 2 1.0000 0
  152 1 214 59   2951.0154       7.4500465      0.42719957E-02   5974.9033       1.0000000       6.4695640      0.29999999E-01 2 1.0000 0
  153 1 214 60   3101.4504       7.6363697      0.42719957E-02   5961.9756       1.0000000       6.4695640      0.29999999E-01 2 1.0000 0
  154 1 213 60   2163.9521       7.7984638      0.42719957E-02   5950.7285       1.0000000       6.4695640      0.29999999E-01 2 1.0000 0
  155 1 213 61   5048.6621       8.0205021      0.42719957E-02   5935.3223       1.0000000       6.4695640      0.29999999E-01 2 1.0000 0
  156 1 213 62   2998.3435       8.2682276      0.42719957E-02   5918.1338       1.0000000       6.4695640      0.29999999E-01 2 1.0000 0
  157 1 212 62   840.71362       8.3864117      0.42719957E-02   5909.9336       1.0000000       6.4695640      0.29999999E-01 2 1.0000 0
  158 1 212 63   3603.9917       8.5232410      0.42719957E-02   5900.4399       1.0000000       6.4695640      0.29999999E-01 2 1.0000 0
  159 1 213 64   2648.9263       8.7157354      0.42719957E-02   5887.0835       1.0000000       6.4695640      0.29999999E-01 2 1.0000 0
  160 1 212 64   2291.2178       8.8678160      0.42719957E-02   5876.5317       1.0000000       6.4695640      0.29999999E-01 2 1.0000 0
  161 1 213 65   3743.5293       9.0535946      0.42719957E-02   5863.6411       1.0000000       6.4695640      0.29999999E-01 2 1.0000 0
  162 1 213 66   4981.1929       9.3221817      0.42719957E-02   5845.0054       1.0000000       6.4695640      0.29999999E-01 2 1.0000 0
  163 1 212 66   1537.7474       9.5228662      0.42719957E-02   5831.0811       1.0000000       6.4695640      0.29999999E-01 2 1.0000 0
  164 1 212 67   3702.4905       9.6841850      0.42719957E-02   5819.8877       1.0000000       6.4695640      0.29999999E-01 2 1.0000 0
  165 1 212 68   3970.9473       9.9204102      0.42719957E-02   5803.4971       1.0000000       6.4695640      0.29999999E-01 2 1.0000 0
  166 1 212 69   1132.7181       10.077526      0.42719957E-02   5792.5957       1.0000000       6.4695640      0.29999999E-01 2 1.0000 0
  167 1 211 69   5158.0044       10.271183      0.42719957E-02   5779.1587       1.0000000       6.4695640      0.29999999E-01 2 1.0000 0
  168 1 211 70   4595.5786       10.571445      0.42719957E-02   5758.3252       1.0000000       6.4695640      0.29999999E-01 2 1.0000 0
  169 1 211 71   905.04761       10.740780      0.42719957E-02   5746.5762       1.0000000       6.4695640      0.29999999E-01 2 1.0000 0
  170 1 210 71   3029.5444       10.861906      0.42719957E-02   5738.1719       1.0000000       6.4695640      0.29999999E-01 2 1.0000 0
  171 1 210 72   6142.2480       11.144257      0.42719957E-02   5718.5806       1.0000000       6.4695640      0.29999999E-01 2 1.0000 0
  172 1 210 73   1536.1458       11.380634      0.42719957E-02   5702.1797       1.0000000       6.4695640      0.29999999E-01 2 1.0000 0
  173 1 209 72   564.34387       11.445297      0.42719957E-02   5697.6929       1.0000000       6.4695640      0.29999999E-01 2 1.0000 0
  174 1 209 73   5989.3374       11.647051      0.42719957E-02   5683.6943       1.0000000       6.4695640      0.29999999E-01 2 1.0000 0
  175 1 209 74   3178.7581       11.929289      0.42719957E-02   5664.1113       1.0000000       6.4695640      0.29999999E-01 2 1.0000 0
  176 1 208 74   3182.5049       12.125118      0.42719957E-02   5650.5234       1.0000000       6.4695640      0.29999999E-01 2 1.0000 0
  177 1 208 75   3996.9243       12.346134      0.42719957E-02   5635.1885       1.0000000       6.4695640      0.29999999E-01 2 1.0000 0
  178 1 207 75   2171.9297       12.536041      0.42719957E-02   5622.0117       1.0000000       6.4695640      0.29999999E-01 2 1.0000 0
  179 1 208 76   2122.8284       12.668254      0.42719957E-02   5612.8384       1.0000000       6.4695640      0.29999999E-01 2 1.0000 0
  180 1 207 76   1597.6227       12.782787      0.42719957E-02   5604.8911       1.0000000       6.4695640      0.29999999E-01 2 1.0000 0
  181 1 207 77   4769.5747       12.978800      0.42719957E-02   5591.2910       1.0000000       6.4695640      0.29999999E-01 2 1.0000 0
  182 1 206 78   3047.5271       13.219447      0.42719957E-02   5574.5938       1.0000000       6.4695640      0.29999999E-01 2 1.0000 0
  183 1 206 77   1548.4453       13.360932      0.42719957E-02   5564.7769       1.0000000       6.4695640      0.29999999E-01 2 1.0000 0
  184 1 205 78   5230.7837       13.569630      0.42719957E-02   5550.2964       1.0000000       6.4695640      0.29999999E-01 2 1.0000 0
  185 1 205 79   4290.8779       13.862751      0.42719957E-02   5529.9580       1.0000000       6.4695640      0.29999999E-01 2 1.0000 0
  186 1 204 79   2289.2568       14.065319      0.42719957E-02   5515.9028       1.0000000       6.4695640      0.29999999E-01 2 1.0000 0
  187 1 205 80   1053.4456       14.168222      0.42719957E-02   5508.7627       1.0000000       6.4695640      0.29999999E-01 2 1.0000 0
  188 1 204 80   5866.1089       14.381239      0.42719957E-02   5493.9829       1.0000000       6.4695640      0.29999999E-01 2 1.0000 0
  189 1 204 81   4512.1904       14.700733      0.42719957E-02   5471.8145       1.0000000       6.4695640      0.29999999E-01 2 1.0000 0
  190 1 204 82   3882.3975       14.959158      0.42719957E-02   5453.8838       1.0000000       6.4695640      0.29999999E-01 2 1.0000 0
  191 1 204 83   4835.5757       15.227537      0.42719957E-02   5435.2622       1.0000000       6.4695640      0.29999999E-01 2 1.0000 0
  192 1 204 84   923.93207       15.404843      0.42719957E-02   5422.9600       1.0000000       6.4695640      0.29999999E-01 2 1.0000 0
  193 1 203 84   4485.7153       15.571378      0.42719957E-02   5411.4048       1.0000000       6.4695640      0.29999999E-01 2 1.0000 0
  194 1 203 85   1572.3108       15.757873      0.42719957E-02   5398.4648       1.0000000       6.4695640      0.29999999E-01 2 1.0000 0
  195 1 202 85   4635.3110       15.948973      0.42719957E-02   5385.2056       1.0000000       6.4695640      0.29999999E-01 2 1.0000 0
  196 1 202 86   3193.0854       16.189968      0.42719957E-02   5368.4844       1.0000000       6.4695640      0.29999999E-01 2 1.0000 0
  197 1 201 86   5640.3940       16.461903      0.42719957E-02   5349.6157       1.0000000       6.4695640      0.29999999E-01 2 1.0000 0
  198 1 200 86   2480.3545       16.711899      0.42719957E-02   5332.2700       1.0000000       6.4695640      0.29999999E-01 2 1.0000 0
  199 1 200 87   3773.6541       16.904427      0.42719957E-02   5318.9111       1.0000000       6.4695640      0.29999999E-01 2 1.0000 0
  200 1 199 87   2611.4229       17.100990      0.42719957E-02   5305.2729       1.0000000       6.4695640      0.29999999E-01 2 1.0000 0
  201 1 199 86   1982.5208       17.242413      0.42719957E-02   5295.4600       1.0000000       6.4695640      0.29999999E-01 2 1.0000 0
  202 1 198 86   3658.5010       17.416069      0.42719957E-02   5283.4111       1.0000000       6.4695640      0.29999999E-01 2 1.0000 0
  203 1 197 86   4556.0493       17.668953      0.42719957E-02   5265.8647       1.0000000       6.4695640      0.29999999E-01 2 1.0000 0
  204 1 196 86   6157.9580       17.998779      0.42719957E-02   5242.9795       1.0000000       6.4695640      0.29999999E-01 2 1.0000 0
  205 1 195 86   4669.0278       18.332085      0.42719957E-02   5219.8535       1.0000000       6.4695640      0.29999999E-01 2 1.0000 0
  206 1 194 86   5142.9771       18.634144      0.42719957E-02   5198.8950       1.0000000       6.4695640      0.29999999E-01 2 1.0000 0
  207 1 193 85   5373.6357       18.957897      0.42719957E-02   5176.4316       1.0000000       6.4695640      0.29999999E-01 2 1.0000 0
  208 1 193 86   939.18707       19.152237      0.42719957E-02   5162.9473       1.0000000       6.4695640      0.29999999E-01 2 1.0000 0
  209 1 192 85   5535.7808       19.351566      0.42719957E-02   5149.1167       1.0000000       6.4695640      0.29999999E-01 2 1.0000 0
  210 1 192 84   1391.4390       19.564819      0.42719957E-02   5134.3203       1.0000000       6.4695640      0.29999999E-01 2 1.0000 0
  211 1 191 85   4465.6309       19.745127      0.42719957E-02   5121.8096       1.0000000       6.4695640      0.29999999E-01 2 1.0000 0
  212 1 190 85   4119.1602       20.009407      0.42719957E-02   5103.4727       1.0000000       6.4695640      0.29999999E-01 2 1.0000 0
  213 1 189 85   6456.0513       20.334961      0.42719957E-02   5080.8838       1.0000000       6.4695640      0.29999999E-01 2 1.0000 0
  214 1 188 85   4080.3545       20.659321      0.42719957E-02   5058.3779       1.0000000       6.4695640      0.29999999E-01 2 1.0000 0
  215 1 187 85   4522.4854       20.924158      0.42719957E-02   5040.0024       1.0000000       6.4695640      0.29999999E-01 2 1.0000 0