# File generated by Flopy version 3.3.7 on 04/18/2023 at 16:55:49.
BEGIN Options
  PRINT_STAGE
  PRINT_FLOWS
  SAVE_FLOWS
  UNIT_CONVERSION  1.28390400E+05
END Options

BEGIN Dimensions
  NREACHES  10461
END Dimensions

BEGIN PACKAGEDATA
  1  1 249 48    2599.33230000       5.00000000       0.00543473    6778.55620000       1.00000000       6.46956400  0.29999999e-01  1       1.00000000  0
  2  1 248 48    1185.64470000       5.00000000       0.00543473    6768.27100000       1.00000000       6.46956400  0.29999999e-01  2       1.00000000  0
  3  1 248 49    3312.55830000       5.00000000       0.00543473    6756.04790000       1.00000000       6.46956400  0.29999999e-01  2       1.00000000  0
  4  1 248 50    3910.99150000       5.00000000       0.00543473    6736.41890000       1.00000000       6.46956400  0.29999999e-01  2       1.00000000  0
  5  1 248 51    3321.09470000       5.00000000       0.00543473    6716.76660000       1.00000000       6.46956400  0.29999999e-01  2       1.00000000  0
  6  1 248 52    3333.97750000       5.00000000       0.00543473    6698.68260000       1.00000000       6.46956400  0.29999999e-01  2       1.00000000  0
  7  1 248 53    3338.90580000       5.00000000       0.00543473    6680.54980000       1.00000000       6.46956400  0.29999999e-01  2       1.00000000  0
  8  1 248 54    3812.98950000       5.00000000       0.00543473    6661.11520000       1.00000000       6.46956400  0.29999999e-01  2       1.00000000  0
  9  1 248 55    2549.11770000       5.00000000       0.00543473    6643.82710000       1.00000000       6.46956400  0.29999999e-01  2       1.00000000  0
  10  1 248 55     959.56873000       5.00000000       0.00521193    6634.39990000       1.00000000       6.46956400  0.29999999e-01  2       1.00000000  0
  11  1 248 56    3716.14260000       5.00000000       0.00521193    6622.21480000       1.00000000       6.46956400  0.29999999e-01  2       1.00000000  0
  12  1 247 57    3746.67870000       5.00000000       0.00521193    6602.76710000       1.00000000       6.46956400  0.29999999e-01  2       1.00000000  0
  13  1 247 58    5283.61280000       5.00000000       0.00521193    6579.23440000       1.00000000       6.46956400  0.29999999e-01  2       1.00000000  0
  14  1 247 59    3345.76510000       5.00000000       0.00521193    6556.74660000       1.00000000       6.46956400  0.29999999e-01  2       1.00000000  0
  15  1 247 60    4131.15770000       5.00000000       0.00521193    6537.26220000       1.00000000       6.46956400  0.29999999e-01  2       1.00000000  0
  16  1 246 61    3474.66330000       5.00000000       0.00521193    6517.44140000       1.00000000       6.46956400  0.29999999e-01  2       1.00000000  0
  17  1 246 62    3817.23560000       5.00000000       0.00521193    6498.43900000       1.00000000       6.46956400  0.29999999e-01  2       1.00000000  0
  18  1 246 63    3301.67500000       5.00000000       0.00521193    6479.88770000       1.00000000       6.46956400  0.29999999e-01  2       1.00000000  0
  19  1 247 64    5644.91210000       5.00000000       0.00521193    6456.57280000       1.00000000       6.46956400  0.29999999e-01  2       1.00000000  0
  20  1 247 65    3427.85180000       5.00000000       0.00521193    6432.92970000       1.00000000       6.46956400  0.29999999e-01  2       1.00000000  0
  21  1 247 66    3674.74730000       5.00000000       0.00521193    6414.42040000       1.00000000       6.46956400  0.29999999e-01  2       1.00000000  0
  22  1 247 67    4369.94630000       5.00000000       0.00521193    6393.45650000       1.00000000       6.46956400  0.29999999e-01  2       1.00000000  0
  23  1 247 68    1681.28920000       5.00000000       0.00521193    6377.68700000       1.00000000       6.46956400  0.29999999e-01  2       1.00000000  0
  24  1 248 68    1840.77010000       5.00000000       0.00521193    6368.50880000       1.00000000       6.46956400  0.29999999e-01  2       1.00000000  0
  25  1 248 69    4005.74120000       5.00000000       0.00521193    6353.27290000       1.00000000       6.46956400  0.29999999e-01  2       1.00000000  0
  26  1 248 70    3280.98950000       5.00000000       0.00521193    6334.28370000       1.00000000       6.46956400  0.29999999e-01  2       1.00000000  0
  27  1 248 71    3566.82890000       5.00000000       0.00521193    6316.43850000       1.00000000       6.46956400  0.29999999e-01  2       1.00000000  0
  28  1 249 72    3362.27320000       5.00000000       0.00521193    6298.38180000       1.00000000       6.46956400  0.29999999e-01  2       1.00000000  0
  29  1 249 73    3623.39090000       5.00000000       0.00521193    6280.17720000       1.00000000       6.46956400  0.29999999e-01  2       1.00000000  0
  30  1 250 73    1901.35680000       5.00000000       0.00521193    6265.77980000       1.00000000       6.46956400  0.29999999e-01  2       1.00000000  0
  31  1 250 74    2773.78440000       5.00000000       0.00521193    6253.59670000       1.00000000       6.46956400  0.29999999e-01  2       1.00000000  0
  32  1 251 74    2400.98360000       5.00000000       0.00521193    6240.11130000       1.00000000       6.46956400  0.29999999e-01  2       1.00000000  0
  33  1 251 75    3990.35790000       5.00000000       0.00521193    6223.45610000       1.00000000       6.46956400  0.29999999e-01  2       1.00000000  0
  34  1 251 76    3797.49980000       5.00000000       0.00521193    6203.16110000       1.00000000       6.46956400  0.29999999e-01  2       1.00000000  0
  35  1 251 77    2508.77030000       5.00000000       0.00521193    6186.72710000       1.00000000       6.46956400  0.29999999e-01  2       1.00000000  0
  36  1 252 77    1400.51530000       5.00000000       0.00521193    6176.53960000       1.00000000       6.46956400  0.29999999e-01  2       1.00000000  0
  37  1 252 78    3325.61250000       5.00000000       0.00521193    6164.22360000       1.00000000       6.46956400  0.29999999e-01  2       1.00000000  0
  38  1 252 79    4883.29540000       5.00000000       0.00521193    6142.83110000       1.00000000       6.46956400  0.29999999e-01  2       1.00000000  0
  39  1 253 80    4092.37570000       5.00000000       0.00521193    6119.44090000       1.00000000       6.46956400  0.29999999e-01  2       1.00000000  0
  40  1 253 81    4310.81400000       5.00000000       0.00521193    6097.54250000       1.00000000       6.46956400  0.29999999e-01  2       1.00000000  0
  41  1 254 82    3667.10380000       5.00000000       0.00521193    6076.75240000       1.00000000       6.46956400  0.29999999e-01  2       1.00000000  0
  42  1 254 83    3617.86990000       5.00000000       0.00521193    6057.76810000       1.00000000       6.46956400  0.29999999e-01  2       1.00000000  0
  43  1 254 84    3907.17530000       5.00000000       0.00521193    6038.15820000       1.00000000       6.46956400  0.29999999e-01  2       1.00000000  0
  44  1 254 85    1577.87570000       5.00000000       0.00521193    6023.86430000       1.00000000       6.46956400  0.29999999e-01  2       1.00000000  0
  45  1 255 85    3529.52290000       5.00000000       0.00521193    6010.55470000       1.00000000       6.46956400  0.29999999e-01  2       1.00000000  0
  46  1 255 86    1829.18770000       5.00000000       0.00521193    5996.58980000       1.00000000       6.46956400  0.29999999e-01  2       1.00000000  0
  47  1 256 86    1709.54380000       5.00000000       0.00521193    5987.36820000       1.00000000       6.46956400  0.29999999e-01  2       1.00000000  0
  48  1 256 87    4315.81790000       5.00000000       0.00521193    5971.66600000       1.00000000       6.46956400  0.29999999e-01  2       1.00000000  0
  49  1 256 88    3831.81880000       5.00000000       0.00521193    5950.43360000       1.00000000       6.46956400  0.29999999e-01  2       1.00000000  0
  50  1 256 89    4666.68120000       5.00000000       0.00521193    5928.28660000       1.00000000       6.46956400  0.29999999e-01  2       1.00000000  0
  51  1 256 90    4019.14140000       5.00000000       0.00521193    5905.65190000       1.00000000       6.46956400  0.29999999e-01  2       1.00000000  0
  52  1 257 91    4973.40920000       5.00000000       0.00521193    5882.21780000       1.00000000       6.46956400  0.29999999e-01  2       1.00000000  0
  53  1 258 92    3835.38280000       5.00000000       0.00521193    5859.26220000       1.00000000       6.46956400  0.29999999e-01  2       1.00000000  0
  54  1 258 93     700.04211000       5.00000000       0.00521193    5847.44290000       1.00000000       6.46956400  0.29999999e-01  2       1.00000000  0
  55  1 238 51    3281.59060000       5.02705720       0.00547811    6463.60940000       1.00000000       6.46956400  0.29999999e-01  1       1.00000000  0
  56  1 238 52    3312.00490000       5.08142190       0.00547811    6445.54880000       1.00000000       6.46956400  0.29999999e-01  2       1.00000000  0
  57  1 238 53    4100.14110000       5.14253570       0.00547811    6425.24660000       1.00000000       6.46956400  0.29999999e-01  2       1.00000000  0
  58  1 238 54    3532.28300000       5.20546580       0.00547811    6404.34130000       1.00000000       6.46956400  0.29999999e-01  2       1.00000000  0
  59  1 238 55    3507.38180000       5.26350880       0.00547811    6385.05910000       1.00000000       6.46956400  0.29999999e-01  2       1.00000000  0
  60  1 238 56    4146.22850000       5.32661340       0.00547811    6364.09520000       1.00000000       6.46956400  0.29999999e-01  2       1.00000000  0
  61  1 238 57    3303.14160000       5.38803430       0.00547811    6343.69140000       1.00000000       6.46956400  0.29999999e-01  2       1.00000000  0
  62  1 238 58    4814.59810000       5.45496610       0.00547811    6321.45610000       1.00000000       6.46956400  0.29999999e-01  2       1.00000000  0
  63  1 238 59    4563.74410000       5.53229140       0.00547811    6295.76860000       1.00000000       6.46956400  0.29999999e-01  2       1.00000000  0
  64  1 238 60    3337.32230000       5.59743640       0.00547811    6274.12700000       1.00000000       6.46956400  0.29999999e-01  2       1.00000000  0
  65  1 238 61    3574.82250000       5.65442750       0.00547811    6255.19430000       1.00000000       6.46956400  0.29999999e-01  2       1.00000000  0
  66  1 237 62    3313.06030000       5.71121930       0.00547811    6236.32810000       1.00000000       6.46956400  0.29999999e-01  2       1.00000000  0
  67  1 237 63    4483.15380000       5.77549980       0.00547811    6214.97360000       1.00000000       6.46956400  0.29999999e-01  2       1.00000000  0
  68  1 237 64    3570.18040000       5.84190030       0.00547811    6192.91500000       1.00000000       6.46956400  0.29999999e-01  2       1.00000000  0
  69  1 238 65    4518.50680000       5.90859220       0.00547811    6170.75980000       1.00000000       6.46956400  0.29999999e-01  2       1.00000000  0
  70  1 238 66    4176.62300000       5.98028470       0.00547811    6146.94340000       1.00000000       6.46956400  0.29999999e-01  2       1.00000000  0
  71  1 238 67    3489.64310000       6.04349370       0.00547811    6125.94530000       1.00000000       6.46956400  0.29999999e-01  2       1.00000000  0
  72  1 237 68    3893.76880000       6.10437060       0.00547811    6105.72170000       1.00000000       6.46956400  0.29999999e-01  2       1.00000000  0
  73  1 237 69    1736.42930000       6.15079210       0.00547811    6090.30030000       1.00000000       6.46956400  0.29999999e-01  2       1.00000000  0
  74  1 236 69    2090.67290000       6.18234730       0.00547811    6079.81740000       1.00000000       6.46956400  0.29999999e-01  2       1.00000000  0
  75  1 236 70    3706.80660000       6.23014780       0.00547811    6063.93800000       1.00000000       6.46956400  0.29999999e-01  2       1.00000000  0
  76  1 236 71    3514.98970000       6.28969240       0.00547811    6044.15720000       1.00000000       6.46956400  0.29999999e-01  2       1.00000000  0
  77  1 236 72    3459.70090000       6.34719940       0.00547811    6025.05270000       1.00000000       6.46956400  0.29999999e-01  2       1.00000000  0
  78  1 235 73    3607.87040000       6.40547230       0.00547811    6005.69430000       1.00000000       6.46956400  0.29999999e-01  2       1.00000000  0
  79  1 235 74    3283.87940000       6.46229550       0.00547811    5986.81740000       1.00000000       6.46956400  0.29999999e-01  2       1.00000000  0
  80  1 235 75    3299.20830000       6.51657390       0.00547811    5968.78610000       1.00000000       6.46956400  0.29999999e-01  2       1.00000000  0
  81  1 235 76    3328.33860000       6.57121850       0.00547811    5950.63280000       1.00000000       6.46956400  0.29999999e-01  2       1.00000000  0
  82  1 235 77    3335.17140000       6.62615970       0.00547811    5932.38130000       1.00000000       6.46956400  0.29999999e-01  2       1.00000000  0
  83  1 235 78    3825.19310000       6.68519780       0.00547811    5912.76860000       1.00000000       6.46956400  0.29999999e-01  2       1.00000000  0
  84  1 234 79    3447.52370000       6.74516200       0.00547811    5892.84810000       1.00000000       6.46956400  0.29999999e-01  2       1.00000000  0
  85  1 234 80    3374.47390000       6.80141020       0.00547811    5874.16210000       1.00000000       6.46956400  0.29999999e-01  2       1.00000000  0
  86  1 235 81    3746.65450000       6.86012460       0.00547811    5854.65720000       1.00000000       6.46956400  0.29999999e-01  2       1.00000000  0
  87  1 235 82    3424.78030000       6.91925380       0.00547811    5835.01420000       1.00000000       6.46956400  0.29999999e-01  2       1.00000000  0
  88  1 235 83    3619.81250000       6.97733740       0.00547811    5815.71880000       1.00000000       6.46956400  0.29999999e-01  2       1.00000000  0
  89  1 235 84    3837.34570000       7.03882220       0.00547811    5795.29300000       1.00000000       6.46956400  0.29999999e-01  2       1.00000000  0
  90  1 235 85    3933.43260000       7.10289290       0.00547811    5774.00880000       1.00000000       6.46956400  0.29999999e-01  2       1.00000000  0
  91  1 235 86    4732.53860000       7.17434500       0.00547811    5750.27200000       1.00000000       6.46956400  0.29999999e-01  2       1.00000000  0
  92  1 236 87    3475.39230000       7.24202010       0.00547811    5727.79000000       1.00000000       6.46956400  0.29999999e-01  2       1.00000000  0
  93  1 236 88    3999.12210000       7.30364800       0.00547811    5707.31690000       1.00000000       6.46956400  0.29999999e-01  2       1.00000000  0
  94  1 236 89    3851.27610000       7.36837580       0.00547811    5685.81450000       1.00000000       6.46956400  0.29999999e-01  2       1.00000000  0
  95  1 235 90    3521.31640000       7.42916300       0.00547811    5665.62010000       1.00000000       6.46956400  0.29999999e-01  2       1.00000000  0
  96  1 236 91    4567.77050000       7.49585870       0.00547811    5643.46390000       1.00000000       6.46956400  0.29999999e-01  2       1.00000000  0
  97  1 236 92    3960.74120000       7.56617740       0.00547811    5620.10400000       1.00000000       6.46956400  0.29999999e-01  2       1.00000000  0
  98  1 236 93    3485.02610000       7.62756820       0.00547811    5599.70950000       1.00000000       6.46956400  0.29999999e-01  2       1.00000000  0
  99  1 235 94    3794.97340000       7.68759250       0.00547811    5579.76900000       1.00000000       6.46956400  0.29999999e-01  2       1.00000000  0
  100  1 235 95    5561.82810000       7.76474000       0.00547811    5554.14060000       1.00000000       6.46956400  0.29999999e-01  2       1.00000000  0
  101  1 235 96    4102.94190000       7.84442710       0.00547811    5527.66800000       1.00000000       6.46956400  0.29999999e-01  2       1.00000000  0
  102  1 235 97    1712.34810000       7.89237500       0.00547811    5511.73970000       1.00000000       6.46956400  0.29999999e-01  2       1.00000000  0
  103  1 234 97    2588.80860000       7.92783830       0.00547811    5499.95850000       1.00000000       6.46956400  0.29999999e-01  2       1.00000000  0
  104  1 235 98    3589.22070000       7.97877690       0.00547811    5483.03660000       1.00000000       6.46956400  0.29999999e-01  2       1.00000000  0
  105  1 234 99    5044.09960000       8.04995920       0.00547811    5459.38960000       1.00000000       6.46956400  0.29999999e-01  2       1.00000000  0
  106  1 234 100    3678.76050000       8.12187960       0.00547811    5435.49710000       1.00000000       6.46956400  0.29999999e-01  2       1.00000000  0
  107  1 234 101    4306.03080000       8.18771550       0.00547811    5413.62650000       1.00000000       6.46956400  0.29999999e-01  2       1.00000000  0
  108  1 234 102    3733.36670000       8.25400160       0.00547811    5391.60600000       1.00000000       6.46956400  0.29999999e-01  2       1.00000000  0
  109  1 234 103    2072.84200000       8.30187420       0.00547811    5375.70260000       1.00000000       6.46956400  0.29999999e-01  2       1.00000000  0
  110  1 233 103    1628.53780000       8.33239170       0.00547811    5365.56450000       1.00000000       6.46956400  0.29999999e-01  2       1.00000000  0
  111  1 233 104    3496.33590000       8.37464710       0.00547811    5351.52690000       1.00000000       6.46956400  0.29999999e-01  2       1.00000000  0
  112  1 234 105    3712.20580000       8.43408200       0.00547811    5331.78220000       1.00000000       6.46956400  0.29999999e-01  2       1.00000000  0
  113  1 233 106    4390.74900000       8.50089170       0.00547811    5309.58790000       1.00000000       6.46956400  0.29999999e-01  2       1.00000000  0
  114  1 233 107    3408.87010000       8.56520080       0.00547811    5288.22460000       1.00000000       6.46956400  0.29999999e-01  2       1.00000000  0
  115  1 232 108    5149.34670000       8.63576410       0.00547811    5264.78320000       1.00000000       6.46956400  0.29999999e-01  2       1.00000000  0
  116  1 231 109    3554.90040000       8.70753100       0.00547811    5240.94140000       1.00000000       6.46956400  0.29999999e-01  2       1.00000000  0
  117  1 231 110    3349.11330000       8.76445580       0.00547811    5222.03120000       1.00000000       6.46956400  0.29999999e-01  2       1.00000000  0
  118  1 231 111    3677.63450000       8.82239150       0.00547811    5202.78470000       1.00000000       6.46956400  0.29999999e-01  2       1.00000000  0
  119  1 230 112    4624.32670000       8.89084240       0.00547811    5180.04490000       1.00000000       6.46956400  0.29999999e-01  2       1.00000000  0
  120  1 229 113    3703.61400000       8.95950700       0.00547811    5157.23440000       1.00000000       6.46956400  0.29999999e-01  2       1.00000000  0
  121  1 229 114    4078.90310000       9.02367500       0.00547811    5135.91750000       1.00000000       6.46956400  0.29999999e-01  2       1.00000000  0
  122  1 229 115    3810.04980000       9.08872030       0.00547811    5114.30910000       1.00000000       6.46956400  0.29999999e-01  2       1.00000000  0
  123  1 229 116    4884.12650000       9.16040420       0.00547811    5090.49560000       1.00000000       6.46956400  0.29999999e-01  2       1.00000000  0
  124  1 229 117    3779.35160000       9.23183630       0.00547811    5066.76560000       1.00000000       6.46956400  0.29999999e-01  2       1.00000000  0
  125  1 229 118    3501.49020000       9.29186630       0.00547811    5046.82320000       1.00000000       6.46956400  0.29999999e-01  2       1.00000000  0
  126  1 229 119    3564.94950000       9.35013010       0.00547811    5027.46780000       1.00000000       6.46956400  0.29999999e-01  2       1.00000000  0
  127  1 229 120    4173.09470000       9.41393090       0.00547811    5006.27290000       1.00000000       6.46956400  0.29999999e-01  2       1.00000000  0
  128  1 229 121    1812.70980000       9.46328450       0.00547811    4989.87740000       1.00000000       6.46956400  0.29999999e-01  2       1.00000000  0
  129  1 230 121    2606.76200000       9.49972340       0.00547811    4977.77250000       1.00000000       6.46956400  0.29999999e-01  2       1.00000000  0
  130  1 230 122    3335.60520000       9.54871940       0.00547811    4961.49560000       1.00000000       6.46956400  0.29999999e-01  2       1.00000000  0
  131  1 231 122    2032.44020000       9.59297940       0.00547811    4946.79250000       1.00000000       6.46956400  0.29999999e-01  2       1.00000000  0
  132  1 231 123    3575.88890000       9.63922020       0.00547811    4931.43120000       1.00000000       6.46956400  0.29999999e-01  2       1.00000000  0
  133  1 231 124    1520.88790000       9.68124390       0.00547811    4917.47070000       1.00000000       6.46956400  0.29999999e-01  2       1.00000000  0
  134  1 232 124    2501.15870000       9.71440600       0.00547811    4906.45410000       1.00000000       6.46956400  0.29999999e-01  2       1.00000000  0
  135  1 232 125    3073.73900000       9.76037120       0.00547811    4891.18410000       1.00000000       6.46956400  0.29999999e-01  2       1.00000000  0
  136  1 233 125    2441.54470000       9.80584530       0.00547811    4876.07760000       1.00000000       6.46956400  0.29999999e-01  2       1.00000000  0
  137  1 233 126    4773.29200000       9.86533260       0.00547811    4856.31540000       1.00000000       6.46956400  0.29999999e-01  2       1.00000000  0
  138  1 234 126    1495.56270000       9.91701890       0.00547811    4839.14500000       1.00000000       6.46956400  0.29999999e-01  2       1.00000000  0
  139  1 234 127    4284.34420000       9.96467590       0.00547811    4823.31350000       1.00000000       6.46956400  0.29999999e-01  2       1.00000000  0
  140  1 219 52    4809.39400000       5.14805600       0.00427200    6134.62700000       1.00000000       6.46956400  0.29999999e-01  1       1.00000000  0
  141  1 219 53    4943.07760000       5.44828320       0.00427200    6113.79590000       1.00000000       6.46956400  0.29999999e-01  2       1.00000000  0
  142  1 219 54    1312.49380000       5.64085910       0.00427200    6100.43410000       1.00000000       6.46956400  0.29999999e-01  2       1.00000000  0
  143  1 218 54    3917.94800000       5.80187700       0.00427200    6089.26170000       1.00000000       6.46956400  0.29999999e-01  2       1.00000000  0
  144  1 217 54    1151.37240000       5.95793440       0.00427200    6078.43360000       1.00000000       6.46956400  0.29999999e-01  2       1.00000000  0
  145  1 217 55    3568.75420000       6.10324240       0.00427200    6068.35160000       1.00000000       6.46956400  0.29999999e-01  2       1.00000000  0
  146  1 217 56    3706.48610000       6.32720850       0.00427200    6052.81150000       1.00000000       6.46956400  0.29999999e-01  2       1.00000000  0
  147  1 216 56    2828.25660000       6.52837900       0.00427200    6038.85350000       1.00000000       6.46956400  0.29999999e-01  2       1.00000000  0
  148  1 216 57    2613.26490000       6.69589470       0.00427200    6027.23050000       1.00000000       6.46956400  0.29999999e-01  2       1.00000000  0
  149  1 215 57    3070.14620000       6.87085680       0.00427200    6015.09030000       1.00000000       6.46956400  0.29999999e-01  2       1.00000000  0
  150  1 215 58    5000.69530000       7.11931560       0.00427200    5997.85110000       1.00000000       6.46956400  0.29999999e-01  2       1.00000000  0
  151  1 215 59    1395.81690000       7.31623080       0.00427200    5984.18850000       1.00000000       6.46956400  0.29999999e-01  2       1.00000000  0
  152  1 214 59    2951.01540000       7.45004650       0.00427200    5974.90330000       1.00000000       6.46956400  0.29999999e-01  2       1.00000000  0
  153  1 214 60    3101.45040000       7.63636970       0.00427200    5961.97560000       1.00000000       6.46956400  0.29999999e-01  2       1.00000000  0
  154  1 213 60    2163.95210000       7.79846380       0.00427200    5950.72850000       1.00000000       6.46956400  0.29999999e-01  2       1.00000000  0
  155  1 213 61    5048.66210000       8.02050210       0.00427200    5935.32230000       1.00000000       6.46956400  0.29999999e-01  2       1.00000000  0
  156  1 213 62    2998.34350000       8.26822760       0.00427200    5918.13380000       1.00000000       6.46956400  0.29999999e-01  2       1.00000000  0
  157  1 212 62     840.71362000       8.38641170       0.00427200    5909.93360000       1.00000000       6.46956400  0.29999999e-01  2       1.00000000  0
  158  1 212 63    3603.99170000       8.52324100       0.00427200    5900.43990000       1.00000000       6.46956400  0.29999999e-01  2       1.00000000  0
  159  1 213 64    2648.92630000       8.71573540       0.00427200    5887.08350000       1.00000000       6.46956400  0.29999999e-01  2       1.00000000  0
  160  1 212 64    2291.21780000       8.86781600       0.00427200    5876.53170000       1.00000000       6.46956400  0.29999999e-01  2       1.00000000  0
  161  1 213 65    3743.52930000       9.05359460       0.00427200    5863.64110000       1.00000000       6.46956400  0.29999999e-01  2       1.00000000  0
  162  1 213 66    4981.19290000       9.32218170       0.00427200    5845.00540000       1.00000000       6.46956400  0.29999999e-01  2       1.00000000  0
  163  1 212 66    1537.74740000       9.52286620       0.00427200    5831.08110000       1.00000000       6.46956400  0.29999999e-01  2       1.00000000  0
  164  1 212 67    3702.49050000       9.68418500       0.00427200    5819.88770000       1.00000000       6.46956400  0.29999999e-01  2       1.00000000  0
  165  1 212 68    3970.94730000       9.92041020       0.00427200    5803.49710000       1.00000000       6.46956400  0.29999999e-01  2       1.00000000  0
  166  1 212 69    1132.71810000      10.07752600       0.00427200    5792.59570000       1.00000000       6.46956400  0.29999999e-01  2       1.00000000  0
  167  1 211 69    5158.00440000      10.27118300       0.00427200    5779.15870000       1.00000000       6.46956400  0.29999999e-01  2       1.00000000  0
  168  1 211 70    4595.57860000      10.57144500       0.00427200    5758.32520000       1.00000000       6.46956400  0.29999999e-01  2       1.00000000  0
  169  1 211 71     905.04761000      10.74078000       0.00427200    5746.57620000       1.00000000       6.46956400  0.29999999e-01  2       1.00000000  0
  170  1 210 71    3029.54440000      10.86190600       0.00427200    5738.17190000       1.00000000       6.46956400  0.29999999e-01  2       1.00000000  0
  171  1 210 72    6142.24800000      11.14425700       0.00427200    5718.58060000       1.00000000       6.46956400  0.29999999e-01  2       1.00000000  0
  172  1 210 73    1536.14580000      11.38063400       0.00427200    5702.17970000       1.00000000       6.46956400  0.29999999e-01  2       1.00000000  0
  173  1 209 72     564.34387000      11.44529700       0.00427200    5697.69290000       1.00000000       6.46956400  0.29999999e-01  2       1.00000000  0
  174  1 209 73    5989.33740000      11.64705100       0.00427200    5683.69430000       1.00000000       6.46956400  0.29999999e-01  2       1.00000000  0
  175  1 209 74    3178.75810000      11.92928900       0.00427200    5664.11130000       1.00000000       6.46956400  0.29999999e-01  2       1.00000000  0
  176  1 208 74    3182.50490000      12.12511800       0.00427200    5650.52340000       1.00000000       6.46956400  0.29999999e-01  2       1.00000000  0
  177  1 208 75    3996.92430000      12.34613400       0.00427200    5635.18850000       1.00000000       6.46956400  0.29999999e-01  2       1.00000000  0
  178  1 207 75    2171.92970000      12.53604100       0.00427200    5622.01170000       1.00000000       6.46956400  0.29999999e-01  2       1.00000000  0
  179  1 208 76    2122.82840000      12.66825400       0.00427200    5612.83840000       1.00000000       6.46956400  0.29999999e-01  2       1.00000000  0
  180  1 207 76    1597.62270000      12.78278700       0.00427200    5604.89110000       1.00000000       6.46956400  0.29999999e-01  2       1.00000000  0
  181  1 207 77    4769.57470000      12.97880000       0.00427200    5591.29100000       1.00000000       6.46956400  0.29999999e-01  2       1.00000000  0
  182  1 206 78    3047.52710000      13.21944700       0.00427200    5574.59380000       1.00000000       6.46956400  0.29999999e-01  2       1.00000000  0
  183  1 206 77    1548.44530000      13.36093200       0.00427200    5564.77690000       1.00000000       6.46956400  0.29999999e-01  2       1.00000000  0
  184  1 205 78    5230.78370000      13.56963000       0.00427200    5550.29640000       1.00000000       6.46956400  0.29999999e-01  2       1.00000000  0
  185  1 205 79    4290.87790000      13.86275100       0.00427200    5529.95800000       1.00000000       6.46956400  0.29999999e-01  2       1.00000000  0
  186  1 204 79    2289.25680000      14.06531900       0.00427200    5515.90280000       1.00000000       6.46956400  0.29999999e-01  2       1.00000000  0
  187  1 205 80    1053.44560000      14.16822200       0.00427200    5508.76270000       1.00000000       6.46956400  0.29999999e-01  2       1.00000000  0
  188  1 204 80    5866.10890000      14.38123900       0.00427200    5493.98290000       1.00000000       6.46956400  0.29999999e-01  2       1.00000000  0
  189  1 204 81    4512.19040000      14.70073300       0.00427200    5471.81450000       1.00000000       6.46956400  0.29999999e-01  2       1.00000000  0
  190  1 204 82    3882.39750000      14.95915800       0.00427200    5453.88380000       1.00000000       6.46956400  0.29999999e-01  2       1.00000000  0