# TDIS8 input file, prepared by mf5to15 on 10/26/2015 at 8:33:38.

BEGIN Options
  TIME_UNITS DAYS
END Options

BEGIN Dimensions
  NPER 1
END Dimensions

BEGIN PERIODDATA
    7305.              1    1.0000000      Items: PERLEN NSTP TSMULT
END PERIODDATA

#BEGIN PERIODDATA
#    365250.00              50    1.0000000      Items: PERLEN NSTP TSMULT
#    1826.2500               5    1.0000000      Items: PERLEN NSTP TSMULT
#    1826.2500               5    1.0000000      Items: PERLEN NSTP TSMULT
#    1461.0000               5    1.0000000      Items: PERLEN NSTP TSMULT
#    4017.7500               8    1.0000000      Items: PERLEN NSTP TSMULT
#    3287.2500               7    1.0000000      Items: PERLEN NSTP TSMULT
#    1095.7500               5    1.0000000      Items: PERLEN NSTP TSMULT
#    4017.7500               6    1.0000000      Items: PERLEN NSTP TSMULT
#END PERIODDATA
