# File generated by Flopy version 3.3.7 on 04/18/2023 at 16:55:44.
BEGIN Options
  TIME_UNITS  days
END Options

BEGIN Dimensions
  NPER  1
END Dimensions

BEGIN PERIODDATA
    7305.00000000  1       1.00000000
END PERIODDATA

