# CHD8 input file, prepared by mf5to15 on 10/26/2015 at 8:33:39.

BEGIN Options
  PRINT_FLOWS
END Options

BEGIN Dimensions
  MAXBOUND  60
END Dimensions

BEGIN PERIOD 1
  1  108  172    4534.0000
  1  109  171    4536.0000
  1  110  170    4538.0000
  1  111  169    4540.0000
  1  112  167    4545.0000
  1  112  168    4544.0000
  1  113  166    4547.0000
  1  119  158    4591.0000
  1  119  159    4588.0000
  1  120  157    4600.0000
  1  121  156    4610.0000
  1  122  154    4628.0000
  1  122  155    4624.0000
  1  123  153    4638.0000
  1  124  152    4650.0000
  1  125  150    4667.0000
  1  125  151    4663.0000
  1  126  149    4675.0000
  1  127  148    4657.0000
  1  128  146    4700.0000
  1  128  147    4692.0000
  1  129  145    4720.0000
  1  130  144    4732.0000
  1  138  681    1595.0000
  1  139  680    1590.0000
  1  140  679    1590.0000
  1  141  679    1595.0000
  1  142  678    1630.0000
  1  143  677    1630.0000
  1  144  125    4541.0000
  1  144  676    1635.0000
  1  145  124    4562.0000
  1  146  122    4721.0000
  1  146  123    4598.0000
  1  147  121    4691.0000
  1  167  94    4940.0000
  1  167  95    4942.0000
  1  168  93    4948.0000
  1  169  92    4925.0000
  1  170  90    5003.0000
  1  170  91    4992.0000
  1  171  89    5027.0000
  1  172  88    5055.0000
  1  173  86    5014.0000
  1  173  87    5029.0000
  1  174  85    5040.0000
  1  175  84    4955.0000
  1  176  82    4887.0000
  1  176  83    4950.0000
  1  196  62    6174.0000
  1  197  62    6256.0000
  1  203  66    5780.0000
  1  207  54    6310.0000
  1  208  53    6326.0000
  1  209  52    6334.0000
  1  210  52    6323.0000
  1  223  42    6368.0000
  1  224  42    6395.0000
  1  225  42    6422.0000
  1  226  42    6449.0000
END PERIOD
