# DRN8 input file, prepared by mf5to15 on 10/26/2015 at 8:33:44.

BEGIN Options
  SAVE_FLOWS
END Options

BEGIN Dimensions
  MAXBOUND  1097
END Dimensions

BEGIN PERIOD 1
  1  13  332    2700.1000        50000.000
  1  14  312    2545.9000        50000.000
  1  14  315    2634.5000        50000.000
  1  14  336    2781.0500        50000.000
  1  15  308    2555.7000        50000.000
  1  15  324    2706.7000        50000.000
  1  16  307    2595.1000        50000.000
  1  16  308    2568.9000        50000.000
  1  16  318    2880.5000        50000.000
  1  16  350    2605.0000        50000.000
  1  17  308    2555.7000        50000.000
  1  17  330    2857.6000        50000.000
  1  20  337    2821.5000        50000.000
  1  26  343    2555.7000        50000.000
  1  17  343    2519.7000        50000.000
  1  17  354    2506.5000        50000.000
  1  18  308    2568.9000        50000.000
  1  18  348    2536.1000        50000.000
  1  18  358    2634.5000        50000.000
  1  19  309    2575.4000        50000.000
  1  19  327    2657.4000        50000.000
  1  19  361    2585.3000        50000.000
  1  27  310    2752.6000        50000.000
  1  27  343    2598.4000        50000.000
  1  20  309    2618.1000        50000.000
  1  21  309    2624.6000        50000.000
  1  22  304    2870.7000        50000.000
  1  22  309    2703.4000        50000.000
  1  23  309    2749.3000        50000.000
  1  24  310    2742.7000        50000.000
  1  25  307    2762.4000        50000.000
  1  25  310    2729.6000        50000.000
  1  26  302    3044.6000        50000.000
  1  26  310    2742.7000        50000.000
  1  26  375    2447.5000        50000.000
  1  26  385    2575.4000        50000.000
  1  28  292    2742.7000        50000.000
  1  28  293    2841.2000        50000.000
  1  28  311    2811.6000        50000.000
  1  28  343    2621.4000        50000.000
  1  28  386    2572.1000        50000.000
  1  29  292    2732.9000        50000.000
  1  29  311    2798.5000        50000.000
  1  29  344    2627.9000        50000.000
  1  30  292    2788.7000        50000.000
  1  30  293    2762.4000        50000.000
  1  30  311    2811.6000        50000.000
  1  30  344    2624.6000        50000.000
  1  31  287    2883.8000        50000.000
  1  31  288    3074.1000        50000.000
  1  31  293    2798.5000        50000.000
  1  31  294    2818.2000        50000.000
  1  31  312    2798.5000        50000.000
  1  31  344    2631.2000        50000.000
  1  31  345    2687.0000        50000.000
  1  32  294    2788.7000        50000.000
  1  32  312    2821.5000        50000.000
  1  32  345    2641.0000        50000.000
  1  33  313    2864.1000        50000.000
  1  33  345    2693.5000        50000.000
  1  37  285    2769.0000        50000.000
  1  37  295    2893.7000        50000.000
  1  33  294    2834.6000        50000.000
  1  33  312    2851.0000        50000.000
  1  34  284    2752.6000        50000.000
  1  34  294    2831.3000        50000.000
  1  34  314    2896.9000        50000.000
  1  34  315    2887.1000        50000.000
  1  34  316    2903.5000        50000.000
  1  34  345    2657.4000        50000.000
  1  35  284    2739.5000        50000.000
  1  35  294    2890.4000        50000.000
  1  35  295    2847.7000        50000.000
  1  35  317    2926.5000        50000.000
  1  35  345    2696.8000        50000.000
  1  35  346    2696.8000        50000.000
  1  35  390    2542.6000        50000.000
  1  37  318    2949.4000        50000.000
  1  37  319    3021.6000        50000.000
  1  37  347    2700.1000        50000.000
  1  36  284    2762.4000        50000.000
  1  36  285    2769.0000        50000.000
  1  36  295    2870.7000        50000.000
  1  36  318    2959.3000        50000.000
  1  36  346    2680.4000        50000.000
  1  38  286    2788.7000        50000.000
  1  38  295    3013.9900        50000.000
  1  38  296    2880.5000        50000.000
  1  38  319    2972.4000        50000.000
  1  38  347    2703.4000        50000.000
  1  39  286    2834.6000        50000.000
  1  39  296    2913.4000        50000.000
  1  39  319    3047.9000        50000.000
  1  39  348    2726.3000        50000.000
  1  40  287    2824.8000        50000.000
  1  40  296    2952.7000        50000.000
  1  40  319    3057.7000        50000.000
  1  40  348    2726.3000        50000.000
  1  40  349    2719.8000        50000.000
  1  41  287    2824.8000        50000.000
  1  41  296    2942.9000        50000.000
  1  41  320    3011.8000        50000.000
  1  41  321    3136.4000        50000.000
  1  41  350    2742.7000        50000.000
  1  41  351    2775.6000        50000.000
  1  42  284    3015.1000        50000.000
  1  42  288    2860.9000        50000.000
  1  42  296    2952.7000        50000.000
  1  42  321    3021.6000        50000.000
  1  42  351    2752.6000        50000.000
  1  47  405    2552.5000        50000.000
  1  47  426    2450.8000        50000.000
  1  43  275    2877.3000        50000.000
  1  43  288    2841.2000        50000.000
  1  43  296    2962.6000        50000.000
  1  43  321    3113.5000        50000.000
  1  43  351    2765.7000        50000.000
  1  44  288    2857.6000        50000.000
  1  44  296    3021.6000        50000.000
  1  44  351    2785.4000        50000.000
  1  44  406    2542.6000        50000.000
  1  44  444    2454.0000        50000.000
  1  48  405    2601.7000        50000.000
  1  45  288    2942.9000        50000.000
  1  45  296    3015.1000        50000.000
  1  45  405    2526.2000        50000.000
  1  45  406    2552.4900        50000.000
  1  45  437    2471.5601        50000.000
  1  46  268    2906.8000        50000.000
  1  46  288    2923.2000        50000.000
  1  46  296    3031.5000        50000.000
  1  46  297    3054.4000        50000.000
  1  46  405    2572.1000        50000.000
  1  46  432    2473.7000        50000.000
  1  46  437    2460.6000        50000.000
  1  46  442    2483.6000        50000.000
  1  47  288    2900.2000        50000.000
  1  47  297    3041.3000        50000.000
  1  48  288    2952.7000        50000.000
  1  48  297    3061.0000        50000.000
  1  49  288    2946.2000        50000.000
  1  49  297    3070.8000        50000.000
  1  49  405    2559.0000        50000.000
  1  49  423    2434.4000        50000.000
  1  50  288    2949.4000        50000.000
  1  50  297    3166.0000        50000.000
  1  50  404    2644.3000        50000.000
  1  50  405    2631.2000        50000.000
  1  50  448    2624.6000        50000.000
  1  51  288    2952.7000        50000.000
  1  51  298    3103.6000        50000.000
  1  51  404    2614.8000        50000.000
  1  52  288    2972.4000        50000.000
  1  52  298    3195.5000        50000.000
  1  52  299    3116.8000        50000.000
  1  52  402    2688.0901        50000.000
  1  52  403    2667.3000        50000.000
  1  58  469    2362.2000        50000.000
  1  53  288    2979.0000        50000.000
  1  53  299    3129.9000        50000.000
  1  53  400    2765.7000        50000.000
  1  53  401    2706.7000        50000.000
  1  53  402    2718.7100        50000.000
  1  54  400    2729.6000        50000.000
  1  54  268    3100.4000        50000.000
  1  54  289    3031.5000        50000.000
  1  54  299    3320.2000        50000.000
  1  54  300    3156.1000        50000.000
  1  54  301    3234.9000        50000.000
  1  59  290    3149.6000        50000.000
  1  59  291    3097.1000        50000.000
  1  59  304    3303.8000        50000.000
  1  55  289    3067.5000        50000.000
  1  55  301    3218.5000        50000.000
  1  55  302    3211.9000        50000.000
  1  55  399    2782.1000        50000.000
  1  55  400    2798.5000        50000.000
  1  56  267    3106.9000        50000.000
  1  56  289    3031.5000        50000.000
  1  56  302    3248.0000        50000.000
  1  56  303    3290.6000        50000.000
  1  57  290    3041.3000        50000.000
  1  57  303    3234.9000        50000.000
  1  57  304    3248.0000        50000.000
  1  57  467    2329.4000        50000.000
  1  57  468    2329.4000        50000.000
  1  57  469    2381.9000        50000.000
  1  57  485    2286.7000        50000.000
  1  57  486    2270.3000        50000.000
  1  57  487    2211.3000        50000.000
  1  57  499    2076.7000        50000.000
  1  57  500    2204.7000        50000.000
  1  58  290    3061.0000        50000.000
  1  58  304    3307.0000        50000.000
  1  58  416    2500.0000        50000.000
  1  58  500    2126.0000        50000.000
  1  59  266    2988.8000        50000.000
  1  59  267    2995.4000        50000.000
  1  59  268    2998.7000        50000.000
  1  59  416    2582.0000        50000.000
  1  59  417    2545.9000        50000.000
  1  59  469    2395.0000        50000.000
  1  59  500    2152.2000        50000.000
  1  67  275    3080.7000        50000.000
  1  60  268    3008.5000        50000.000
  1  60  291    3139.7000        50000.000
  1  63  489    2457.3000        50000.000
  1  63  492    2329.4000        50000.000
  1  60  417    2608.2000        50000.000
  1  61  269    3015.1000        50000.000
  1  61  292    3116.8000        50000.000
  1  61  293    3126.6000        50000.000
  1  61  294    3234.9000        50000.000
  1  61  418    2542.6000        50000.000
  1  61  488    2280.2000        50000.000
  1  62  269    3044.6000        50000.000
  1  62  270    3031.5000        50000.000
  1  62  294    3159.4000        50000.000
  1  62  418    2736.2000        50000.000
  1  67  296    3326.7000        50000.000
  1  62  488    2299.8000        50000.000
  1  62  492    2303.1000        50000.000
  1  63  262    3047.9000        50000.000
  1  63  271    3024.9000        50000.000
  1  63  294    3251.3000        50000.000
  1  63  295    3182.4000        50000.000
  1  63  418    2683.7000        50000.000
  1  63  419    2664.0000        50000.000
  1  64  261    2949.4000        50000.000
  1  64  272    3047.9000        50000.000
  1  64  296    3195.5000        50000.000
  1  64  418    2654.2000        50000.000
  1  65  273    3047.9000        50000.000
  1  65  296    3221.7000        50000.000
  1  65  418    2716.5000        50000.000
  1  66  274    3070.8000        50000.000
  1  66  296    3221.7000        50000.000
  1  66  418    2749.3000        50000.000
  1  67  418    2801.8000        50000.000
  1  68  276    3100.4000        50000.000
  1  68  296    3307.0000        50000.000
  1  72  277    3215.2000        50000.000
  1  72  278    3152.8000        50000.000
  1  72  297    3320.2000        50000.000
  1  72  298    3330.0000        50000.000
  1  77  501    2250.6000        50000.000
  1  69  276    3136.4000        50000.000
  1  69  277    3156.1000        50000.000
  1  69  297    3293.9000        50000.000
  1  70  277    3129.9000        50000.000
  1  70  297    3300.5000        50000.000
  1  71  277    3133.2000        50000.000
  1  71  297    3307.0000        50000.000
  1  73  278    3159.4000        50000.000
  1  73  299    3336.6000        50000.000
  1  74  278    3221.7000        50000.000
  1  74  299    3362.8000        50000.000
  1  74  300    3353.0000        50000.000
  1  75  278    3208.6000        50000.000
  1  75  299    3392.3000        50000.000
  1  75  301    3359.5000        50000.000
  1  75  302    3412.0000        50000.000
  1  76  278    3225.0000        50000.000
  1  76  279    3261.1000        50000.000
  1  76  300    3382.5000        50000.000
  1  76  303    3421.9000        50000.000
  1  76  304    3405.5000        50000.000
  1  76  305    3412.0000        50000.000
  1  77  279    3211.9000        50000.000
  1  77  301    3412.0000        50000.000
  1  77  305    3425.2000        50000.000
  1  77  306    3415.3000        50000.000
  1  78  279    3221.7000        50000.000
  1  78  301    3487.5000        50000.000
  1  78  501    2260.5000        50000.000
  1  78  527    2198.1000        50000.000
  1  78  528    2171.9000        50000.000
  1  84  512    2303.1000        50000.000
  1  84  517    2299.8000        50000.000
  1  84  519    2224.4000        50000.000
  1  84  534    2188.3000        50000.000
  1  84  535    2135.8000        50000.000
  1  81  270    3458.0000        50000.000
  1  81  279    3287.4000        50000.000
  1  79  279    3261.1000        50000.000
  1  79  300    3543.3000        50000.000
  1  79  493    2273.6000        50000.000
  1  79  501    2263.8000        50000.000
  1  80  279    3267.7000        50000.000
  1  80  300    3546.5000        50000.000
  1  80  493    2230.9000        50000.000
  1  81  300    3497.3000        50000.000
  1  82  300    3625.3000        50000.000
  1  83  269    3517.0000        50000.000
  1  83  504    2375.3000        50000.000
  1  83  510    2253.9000        50000.000
  1  83  517    2329.4000        50000.000
  1  83  518    2270.3000        50000.000
  1  83  519    2286.7000        50000.000
  1  84  504    2293.3000        50000.000
  1  92  265    3487.5000        50000.000
  1  85  490    2204.7000        50000.000
  1  85  499    2208.0000        50000.000
  1  85  500    2358.9199        50000.000
  1  85  503    2230.9000        50000.000
  1  85  504    2303.1000        50000.000
  1  85  507    2355.6399        50000.000
  1  85  508    2290.0000        50000.000
  1  85  534    2185.0000        50000.000
  1  86  267    3810.1399        50000.000
  1  86  489    2250.6000        50000.000
  1  86  490    2224.4000        50000.000
  1  86  503    2204.7000        50000.000
  1  86  507    2299.8000        50000.000
  1  86  515    2224.4000        50000.000
  1  94  559    1965.2000        50000.000
  1  87  489    2237.5000        50000.000
  1  87  495    2181.7000        50000.000
  1  87  515    2178.5000        50000.000
  1  87  546    2017.7000        50000.000
  1  88  489    2270.3000        50000.000
  1  88  495    2224.4000        50000.000
  1  89  265    3435.0000        50000.000
  1  89  488    2368.7000        50000.000
  1  89  489    2355.6000        50000.000
  1  89  523    2185.0000        50000.000
  1  89  550    2021.0000        50000.000
  1  89  551    2027.5500        50000.000
  1  90  488    2316.2000        50000.000
  1  90  522    2132.5000        50000.000
  1  90  523    2155.5000        50000.000
  1  90  530    2129.2000        50000.000
  1  91  523    2021.0000        50000.000
  1  91  524    2109.6000        50000.000
  1  91  528    2194.9000        50000.000
  1  91  529    2122.7000        50000.000
  1  91  530    2106.3000        50000.000
  1  92  190    4064.9000        50000.000
  1  92  499    2290.0000        50000.000
  1  92  530    2057.1000        50000.000
  1  92  555    2040.7000        50000.000
  1  93  188    4015.7000        50000.000
  1  93  499    2319.5000        50000.000
  1  93  537    2106.3000        50000.000
  1  93  555    2021.0000        50000.000
  1  94  186    4041.9000        50000.000
  1  94  263    3421.9000        50000.000
  1  94  537    2083.3000        50000.000
  1  95  256    3484.2000        50000.000
  1  95  257    3438.3000        50000.000
  1  97  545    2170.8201        50000.000
  1  97  551    2116.1399        50000.000
  1  97  564    1933.5000        50000.000
  1  95  537    2042.8600        50000.000
  1  96  499    2378.6000        50000.000
  1  96  504    2224.4000        50000.000
  1  96  560    1971.8000        50000.000
  1  96  561    1948.8000        50000.000
  1  97  182    4127.2000        50000.000
  1  97  254    3467.8000        50000.000
  1  98  545    2060.3000        50000.000
  1  99  503    2286.7000        50000.000
  1  97  499    2362.2000        50000.000
  1  97  500    2368.7000        50000.000
  1  97  503    2237.5000        50000.000
  1  97  504    2240.8000        50000.000
  1  98  500    2319.5000        50000.000
  1  98  501    2286.7000        50000.000
  1  98  502    2260.5000        50000.000
  1  98  503    2270.3000        50000.000
  1  98  551    2017.7000        50000.000
  1  98  564    1948.8000        50000.000
  1  99  179    4166.6000        50000.000
  1  99  239    3415.3000        50000.000
  1  99  551    1971.8000        50000.000
  1  100  503    2280.2000        50000.000
  1  100  557    2001.3000        50000.000
  1  100  558    1998.0000        50000.000
  1  101  503    2283.4000        50000.000
  1  101  507    2237.5000        50000.000
  1  101  558    1929.1000        50000.000
  1  101  559    1899.6000        50000.000
  1  101  570    1856.9000        50000.000
  1  101  571    1820.8000        50000.000
  1  102  238    3477.6000        50000.000
  1  102  503    2296.6000        50000.000
  1  102  507    2250.6000        50000.000
  1  106  235    3654.8000        50000.000
  1  109  573    1607.6000        50000.000
  1  109  574    1696.2000        50000.000
  1  103  507    2276.9000        50000.000
  1  104  507    2286.7000        50000.000
  1  104  563    1735.5000        50000.000
  1  104  564    1666.6000        50000.000
  1  104  565    1663.4000        50000.000
  1  104  566    1725.7000        50000.000
  1  104  576    1811.0000        50000.000
  1  104  577    1768.4000        50000.000
  1  111  215    3884.5000        50000.000
  1  111  218    3707.3000        50000.000
  1  105  519    2185.0000        50000.000
  1  105  520    2185.0000        50000.000
  1  105  542    1919.3000        50000.000
  1  105  543    1912.7000        50000.000
  1  105  544    1922.5699        50000.000
  1  105  565    1780.4000        50000.000
  1  105  566    1725.7000        50000.000
  1  105  567    1673.2000        50000.000
  1  105  568    1640.4000        50000.000
  1  105  569    1643.7000        50000.000
  1  105  576    1817.6000        50000.000
  1  106  567    1669.9000        50000.000
  1  106  568    1640.4000        50000.000
  1  106  569    1637.1000        50000.000
  1  106  570    1624.0000        50000.000
  1  106  571    1624.0000        50000.000
  1  106  576    1820.8000        50000.000
  1  107  571    1633.8000        50000.000
  1  107  572    1617.4000        50000.000
  1  108  230    3671.2500        50000.000
  1  108  232    3618.7000        50000.000
  1  108  572    1620.7000        50000.000
  1  108  573    1614.2000        50000.000
  1  109  226    3677.8000        50000.000
  1  109  524    2171.9000        50000.000
  1  110  221    3638.4000        50000.000
  1  110  482    2378.6000        50000.000
  1  110  486    2414.6899        50000.000
  1  110  524    2185.0000        50000.000
  1  110  574    1597.7000        50000.000
  1  110  575    1624.0000        50000.000
  1  111  482    2303.1000        50000.000
  1  111  486    2280.2000        50000.000
  1  111  523    2201.4000        50000.000
  1  111  575    1591.2000        50000.000
  1  111  576    1627.3000        50000.000
  1  111  579    1581.3000        50000.000
  1  111  580    1617.4000        50000.000
  1  112  482    2267.0000        50000.000
  1  112  486    2388.4000        50000.000
  1  112  493    2360.0100        50000.000
  1  112  494    2379.7000        50000.000
  1  112  521    2244.1000        50000.000
  1  112  522    2234.2000        50000.000
  1  112  523    2214.5000        50000.000
  1  112  578    1574.8000        50000.000
  1  112  579    1666.6000        50000.000
  1  112  580    1568.2000        50000.000
  1  112  581    1607.6000        50000.000
  1  112  582    1627.3000        50000.000
  1  113  482    2316.2000        50000.000
  1  113  486    2319.5000        50000.000
  1  113  493    2309.7000        50000.000
  1  113  494    2372.0400        50000.000
  1  113  497    2286.7000        50000.000
  1  113  499    2316.2000        50000.000
  1  113  523    2234.2000        50000.000
  1  114  493    2253.9000        50000.000
  1  114  497    2303.1000        50000.000
  1  114  499    2253.9000        50000.000
  1  114  531    2103.0000        50000.000
  1  114  532    2099.7000        50000.000
  1  114  535    2076.7700        50000.000
  1  114  536    2062.5500        50000.000
  1  115  493    2299.8601        50000.000
  1  115  497    2299.8000        50000.000
  1  115  498    2237.5000        50000.000
  1  115  529    2208.0000        50000.000
  1  115  530    2145.6000        50000.000
  1  115  531    2116.1000        50000.000
  1  115  532    2152.2000        50000.000
  1  116  497    2152.2000        50000.000
  1  116  501    2201.4000        50000.000
  1  116  527    2236.4299        50000.000
  1  116  529    2202.5300        50000.000
  1  117  501    2304.2400        50000.000
  1  117  502    2283.4000        50000.000
  1  117  504    2290.0000        50000.000
  1  117  508    2355.6000        50000.000
  1  117  515    2372.0000        50000.000
  1  117  518    2283.4600        50000.000
  1  117  527    2122.7000        50000.000
  1  118  502    2152.2000        50000.000
  1  118  504    2148.9000        50000.000
  1  118  506    2332.6000        50000.000
  1  118  508    2171.9000        50000.000
  1  118  515    2175.2000        50000.000
  1  118  518    2275.8000        50000.000
  1  118  519    2269.2400        50000.000
  1  118  520    2264.8701        50000.000
  1  118  525    2235.3401        50000.000
  1  118  526    2158.8000        50000.000
  1  119  504    2158.8000        50000.000
  1  119  506    2185.0000        50000.000
  1  119  508    2142.4000        50000.000
  1  119  511    2291.1101        50000.000
  1  119  513    2260.5000        50000.000
  1  119  516    2272.5200        50000.000
  1  119  519    2201.4000        50000.000
  1  119  520    2139.1000        50000.000
  1  119  523    2162.0000        50000.000
  1  119  524    2215.6499        50000.000
  1  120  506    2178.5000        50000.000
  1  120  508    2119.4000        50000.000
  1  120  511    2139.1000        50000.000
  1  120  513    2168.6000        50000.000
  1  120  515    2188.3000        50000.000
  1  120  516    2155.5000        50000.000
  1  120  517    2214.5000        50000.000
  1  120  520    2129.2000        50000.000
  1  120  550    2093.2000        50000.000
  1  120  555    1948.8000        50000.000
  1  121  508    2131.4500        50000.000
  1  121  513    2063.6000        50000.000
  1  121  515    2181.7000        50000.000
  1  121  517    2070.2000        50000.000
  1  124  541    2124.8799        50000.000
  1  125  535    2109.6000        50000.000
  1  125  575    1925.8000        50000.000
  1  126  538    2181.7000        50000.000
  1  126  562    1982.7100        50000.000
  1  127  528    2171.9000        50000.000
  1  128  518    2204.7000        50000.000
  1  128  524    2171.9000        50000.000
  1  130  609    1765.0900        50000.000
  1  131  612    1739.9301        50000.000
  1  132  590    1778.2000        50000.000
  1  135  618    1774.9000        50000.000
  1  142  620    1801.2000        50000.000
  1  142  691    1751.9000        50000.000
  1  143  620    1811.0000        50000.000
  1  143  692    1679.8000        50000.000
  1  144  693    1679.8000        50000.000
  1  144  694    1617.4000        50000.000
  1  144  695    1564.9000        50000.000
  1  145  696    1627.3000        50000.000
  1  145  697    1650.2000        50000.000
  1  145  698    1551.8000        50000.000
  1  145  699    1608.7000        50000.000
  1  145  700    1594.5000        50000.000
  1  145  701    1499.3000        50000.000
  1  145  702    1522.3000        50000.000
  1  145  703    1489.5000        50000.000
  1  145  704    1486.2000        50000.000
  1  151  631    1735.5601        50000.000
  1  151  632    1701.6600        50000.000
  1  151  633    1663.4000        50000.000
  1  151  643    1555.1000        50000.000
  1  151  644    1591.2000        50000.000
  1  151  654    1614.1700        50000.000
  1  146  707    1420.6000        50000.000
  1  147  706    1456.7000        50000.000
  1  147  710    1499.3000        50000.000
  1  147  711    1562.7700        50000.000
  1  154  633    1709.3000        50000.000
  1  148  712    1581.3000        50000.000
  1  148  713    1595.5800        50000.000
  1  148  714    1581.3000        50000.000
  1  149  715    1584.6000        50000.000
  1  150  645    1594.5000        50000.000
  1  150  646    1631.6700        50000.000
  1  150  647    1607.6000        50000.000
  1  150  648    1617.4000        50000.000
  1  150  649    1643.7000        50000.000
  1  150  716    1538.7000        50000.000
  1  150  717    1515.7000        50000.000
  1  151  623    1686.3000        50000.000
  1  151  627    1741.0300        50000.000
  1  151  628    1689.6000        50000.000
  1  151  629    1771.6000        50000.000
  1  151  630    1748.7000        50000.000
  1  151  718    1509.2000        50000.000
  1  152  622    1729.0000        50000.000
  1  152  633    1709.3000        50000.000
  1  152  641    1668.8500        50000.000
  1  152  642    1617.4000        50000.000
  1  152  719    1512.4000        50000.000
  1  152  720    1492.8000        50000.000
  1  153  621    1783.6801        50000.000
  1  153  633    1702.7000        50000.000
  1  153  660    1729.0000        50000.000
  1  153  661    1733.3700        50000.000
  1  153  662    1653.5000        50000.000
  1  153  665    1719.1000        50000.000
  1  153  666    1758.5000        50000.000
  1  153  667    1802.2700        50000.000
  1  153  668    1735.5000        50000.000
  1  153  669    1742.1000        50000.000
  1  153  670    1745.4000        50000.000
  1  153  720    1535.4000        50000.000
  1  154  663    1755.2000        50000.000
  1  154  664    1761.8000        50000.000
  1  154  721    1525.6000        50000.000
  1  186  69    5410.0000        50000.000
  1  188  66    5679.1000        50000.000
  1  189  65    5705.3000        50000.000
  1  190  63    5577.4000        50000.000
  1  190  64    5784.1000        50000.000
  1  191  62    5668.1802        50000.000
  1  192  60    5593.8000        50000.000
  1  192  61    5633.1000        50000.000
  1  193  59    5682.3000        50000.000
  1  201  60    6446.8000        50000.000
  1  202  57    6118.7000        50000.000
  1  202  58    6161.3000        50000.000
  1  202  60    6446.8000        50000.000
  1  203  58    6204.0000        50000.000
  1  203  62    6354.9000        50000.000
  1  204  62    6325.4000        50000.000
  1  204  65    6013.7000        50000.000
  1  205  52    6407.4000        50000.000
  1  205  53    6459.9000        50000.000
  1  205  62    6361.5000        50000.000
  1  205  65    5977.6000        50000.000
  1  206  53    6709.2000        50000.000
  1  206  62    6361.5000        50000.000
  1  206  64    6092.4000        50000.000
  1  224  46    6420.5000        50000.000
  1  224  49    6361.5000        50000.000
  1  223  45    6469.7000        50000.000
  1  223  49    6305.7000        50000.000
  1  225  45    6450.1000        50000.000
  1  225  46    6492.7598        50000.000
  1  226  45    6522.2000        50000.000
  1  285  47    7108.4600        50000.000
  1  285  54    6814.2000        50000.000
  1  285  58    6561.6000        50000.000
  1  285  59    6492.7000        50000.000
  1  284  66    6278.4199        50000.000
  1  284  67    6200.7000        50000.000
  1  286  54    6774.9000        50000.000
  1  286  69    6095.7000        50000.000
  1  287  48    6843.7000        50000.000
  1  287  49    7046.1299        50000.000
  1  287  50    6958.6000        50000.000
  1  287  51    6914.8999        50000.000
  1  287  55    6597.7000        50000.000
  1  287  69    6066.2000        50000.000
  1  290  79    6033.4000        50000.000
  1  291  72    6046.5698        50000.000
  1  296  86    5961.2700        50000.000
  1  299  187    4707.9000        50000.000
  1  292  94    5807.0000        50000.000
  1  292  101    5459.3000        50000.000
  1  294  80    5843.1000        50000.000
  1  294  91    5810.3000        50000.000
  1  295  83    5803.7000        50000.000
  1  305  160    5075.4000        50000.000
  1  298  183    4711.2000        50000.000
  1  298  184    4758.2998        50000.000
  1  298  185    4750.6401        50000.000
  1  299  186    4589.8000        50000.000
  1  300  188    4678.4000        50000.000
  1  300  191    4677.3701        50000.000
  1  300  192    4593.1000        50000.000
  1  300  193    4645.6000        50000.000
  1  301  194    4685.0298        50000.000
  1  302  124    5177.1000        50000.000
  1  302  125    5246.0000        50000.000
  1  302  251    3920.6000        50000.000
  1  303  164    5048.1001        50000.000
  1  303  196    4744.0000        50000.000
  1  304  163    5052.4000        50000.000
  1  304  171    4878.5000        50000.000
  1  304  198    4553.8000        50000.000
  1  304  199    4648.9399        50000.000
  1  304  200    4663.1499        50000.000
  1  306  135    5452.7000        50000.000
  1  306  147    5186.9000        50000.000
  1  306  201    4585.5098        50000.000
  1  306  213    4482.7100        50000.000
  1  306  215    4438.9000        50000.000