# SMS8 input file, prepared by mf5to15 on 10/26/2015 at 8:33:47.

BEGIN Options
  PRINT_OPTION  SUMMARY
  COMPLEXITY  MODERATE
END Options

BEGIN Nonlinear
  OUTER_HCLOSE   0.05
  OUTER_MAXIMUM  2000
  UNDER_RELAXATION  DBD
  UNDER_RELAXATION_THETA 0.900000E+00
  UNDER_RELAXATION_KAPPA 0.100000E-04
  UNDER_RELAXATION_GAMMA 0.000000E+00
  UNDER_RELAXATION_MOMENTUM 0.100000E+00
END Nonlinear

BEGIN LINEAR
  INNER_MAXIMUM  200
  INNER_HCLOSE   0.50000004E-03
  INNER_RCLOSE    1.E10 50000.000    
  LINEAR_ACCELERATION  BICGSTAB
  RELAXATION_FACTOR 0.
  PRECONDITIONER_LEVELS 3
  PRECONDITIONER_DROP_TOLERANCE 0.001
  NUMBER_ORTHOGONALIZATIONS 5
  REORDERING_METHOD RCM
END LINEAR
