
BEGIN OPTIONS
  SAVE_FLOWS
END OPTIONS

BEGIN DIMENSIONS
  MAXBOUND 3536
END DIMENSIONS

BEGIN PERIOD 1
43016 0.0
43017 0.0
43018 0.0
57466 0.0
57467 0.0
67244 0.0
68507 0.0
73322 0.0
73323 0.0
73428 0.0
73429 0.0
73431 0.0
73434 0.0
73436 0.0
73437 0.0
73440 0.0
73441 0.0
73599 0.0
73600 0.0
73601 0.0
73602 0.0
73603 0.0
73605 0.0
73606 0.0
73612 0.0
73615 0.0
73616 0.0
73683 0.0
73685 0.0
73686 0.0
73690 0.0
73691 0.0
73692 0.0
73695 0.0
73809 0.0
73810 0.0
73814 0.0
73815 0.0
74398 0.0
74399 0.0
74400 0.0
74402 0.0
74403 0.0
74406 0.0
74407 0.0
74411 0.0
74416 0.0
74417 0.0
74633 0.0
74634 0.0
74635 0.0
74636 0.0
74641 0.0
74642 0.0
74643 0.0
74644 0.0
74649 0.0
74650 0.0
74651 0.0
74654 0.0
74656 0.0
74657 0.0
74659 0.0
74660 0.0
74661 0.0
74665 0.0
74666 0.0
74667 0.0
75062 0.0
75063 0.0
75065 0.0
75068 0.0
75070 0.0
75071 0.0
75074 0.0
75075 0.0
75079 0.0
75080 0.0
75081 0.0
75082 0.0
75085 0.0
75088 0.0
75091 0.0
75092 0.0
75094 0.0
75095 0.0
75097 0.0
75098 0.0
75103 0.0
75104 0.0
75107 0.0
75108 0.0
75111 0.0
75112 0.0
75115 0.0
75116 0.0
75121 0.0
75122 0.0
75123 0.0
75124 0.0
75129 0.0
75130 0.0
75131 0.0
75132 0.0
75137 0.0
75138 0.0
75139 0.0
75142 0.0
75144 0.0
75145 0.0
75148 0.0
75149 0.0
75151 0.0
75154 0.0
75156 0.0
75157 0.0
75159 0.0
75160 0.0
75165 0.0
75166 0.0
75167 0.0
75170 0.0
75171 0.0
75174 0.0
75177 0.0
75178 0.0
75181 0.0
75182 0.0
75184 0.0
75185 0.0
75187 0.0
75188 0.0
75193 0.0
75194 0.0
75195 0.0
75198 0.0
75202 0.0
75203 0.0
75206 0.0
75207 0.0
75210 0.0
75211 0.0
75214 0.0
75215 0.0
75219 0.0
75222 0.0
75223 0.0
75228 0.0
75229 0.0
75232 0.0
75235 0.0
75236 0.0
75237 0.0
75240 0.0
75242 0.0
75243 0.0
75247 0.0
75248 0.0
75249 0.0
75252 0.0
75254 0.0
75255 0.0
75258 0.0
75259 0.0
75262 0.0
75263 0.0
75266 0.0
75267 0.0
75270 0.0
75271 0.0
75274 0.0
75275 0.0
75278 0.0
75279 0.0
75282 0.0
75283 0.0
75286 0.0
75287 0.0
75291 0.0
75296 0.0
75297 0.0
75298 0.0
75299 0.0
75300 0.0
75302 0.0
75303 0.0
75309 0.0
75312 0.0
75313 0.0
75316 0.0
75317 0.0
75318 0.0
75319 0.0
75320 0.0
75322 0.0
75323 0.0
75326 0.0
75329 0.0
75331 0.0
75335 0.0
75336 0.0
75338 0.0
75340 0.0
75341 0.0
75345 0.0
75347 0.0
75348 0.0
75350 0.0
75352 0.0
75353 0.0
75357 0.0
75359 0.0
75360 0.0
75362 0.0
75364 0.0
75365 0.0
75369 0.0
75371 0.0
75372 0.0
75374 0.0
75376 0.0
75377 0.0
75378 0.0
75381 0.0
75383 0.0
75386 0.0
75388 0.0
75389 0.0
75391 0.0
75394 0.0
75396 0.0
75397 0.0
75399 0.0
75402 0.0
75404 0.0
75405 0.0
75407 0.0
75410 0.0
75412 0.0
75413 0.0
75415 0.0
75420 0.0
75421 0.0
75422 0.0
75423 0.0
75424 0.0
75429 0.0
75430 0.0
75431 0.0
75432 0.0
75437 0.0
75438 0.0
75439 0.0
75440 0.0
75445 0.0
75446 0.0
75448 0.0
75449 0.0
75451 0.0
75454 0.0
75456 0.0
75457 0.0
75459 0.0
75462 0.0
75464 0.0
75465 0.0
75466 0.0
75467 0.0
75473 0.0
75476 0.0
75477 0.0
75478 0.0
75479 0.0
75480 0.0
75483 0.0
75488 0.0
75489 0.0
75490 0.0
75492 0.0
75493 0.0
75494 0.0
75495 0.0
75501 0.0
75502 0.0
75503 0.0
75504 0.0
75509 0.0
75510 0.0
75512 0.0
75513 0.0
75515 0.0
75520 0.0
75521 0.0
75522 0.0
75523 0.0
75524 0.0
75529 0.0
75530 0.0
75532 0.0
75533 0.0
75535 0.0
75538 0.0
75540 0.0
75541 0.0
75545 0.0
75547 0.0
75548 0.0
75550 0.0
75551 0.0
75552 0.0
75554 0.0
75557 0.0
75559 0.0
75562 0.0
75564 0.0
75565 0.0
75567 0.0
75572 0.0
75573 0.0
75574 0.0
75575 0.0
75576 0.0
75581 0.0
75582 0.0
75583 0.0
75584 0.0
75586 0.0
75587 0.0
75591 0.0
75596 0.0
75597 0.0
75600 0.0
75601 0.0
75602 0.0
75604 0.0
75605 0.0
75606 0.0
75607 0.0
75610 0.0
75611 0.0
75615 0.0
75619 0.0
75620 0.0
75621 0.0
75622 0.0
75624 0.0
75625 0.0
75627 0.0
75630 0.0
75631 0.0
75632 0.0
75634 0.0
75637 0.0
75639 0.0
75642 0.0
75644 0.0
75645 0.0
75649 0.0
75651 0.0
75652 0.0
75654 0.0
75656 0.0
75657 0.0
75658 0.0
75659 0.0
75662 0.0
75663 0.0
75669 0.0
75672 0.0
75673 0.0
75676 0.0
75677 0.0
75680 0.0
75681 0.0
75684 0.0
75685 0.0
75688 0.0
75689 0.0
75692 0.0
75693 0.0
75696 0.0
75697 0.0
75700 0.0
75701 0.0
75702 0.0
75703 0.0
75704 0.0
75706 0.0
75707 0.0
75710 0.0
75711 0.0
75714 0.0
75715 0.0
75719 0.0
75724 0.0
75725 0.0
75728 0.0
75729 0.0
75732 0.0
75733 0.0
75736 0.0
75737 0.0
75738 0.0
75739 0.0
75740 0.0
75742 0.0
75743 0.0
75746 0.0
75747 0.0
75751 0.0
75756 0.0
75757 0.0
75760 0.0
75761 0.0
75764 0.0
75765 0.0
75766 0.0
75767 0.0
75768 0.0
75770 0.0
75771 0.0
75774 0.0
75775 0.0
75779 0.0
75784 0.0
75785 0.0
75786 0.0
75788 0.0
75789 0.0
75791 0.0
75794 0.0
75796 0.0
75797 0.0
75799 0.0
75802 0.0
75804 0.0
75805 0.0
75806 0.0
75807 0.0
75813 0.0
75814 0.0
75815 0.0
75816 0.0
75821 0.0
75822 0.0
75823 0.0
75824 0.0
75827 0.0
75832 0.0
75833 0.0
75834 0.0
75835 0.0
75836 0.0
75838 0.0
75839 0.0
75845 0.0
75848 0.0
75849 0.0
75850 0.0
75851 0.0
75852 0.0
75854 0.0
75855 0.0
75859 0.0
75860 0.0
75861 0.0
75864 0.0
75865 0.0
75866 0.0
75870 0.0
75871 0.0
75874 0.0
75875 0.0
75877 0.0
75880 0.0
75881 0.0
75884 0.0
75885 0.0
75886 0.0
75890 0.0
75891 0.0
75894 0.0
75895 0.0
75897 0.0
75900 0.0
75901 0.0
75904 0.0
75905 0.0
75906 0.0
75907 0.0
75908 0.0
75910 0.0
75911 0.0
75915 0.0
75920 0.0
75921 0.0
75922 0.0
75923 0.0
75924 0.0
75929 0.0
75930 0.0
75931 0.0
75932 0.0
75937 0.0
75938 0.0
75939 0.0
75940 0.0
75943 0.0
75946 0.0
75948 0.0
75949 0.0
75951 0.0
75954 0.0
75956 0.0
75957 0.0
75959 0.0
75962 0.0
75964 0.0
75965 0.0
75966 0.0
75967 0.0
75970 0.0
75971 0.0
75974 0.0
75975 0.0
75981 0.0
75984 0.0
75985 0.0
75988 0.0
75989 0.0
75992 0.0
75993 0.0
75996 0.0
75997 0.0
76000 0.0
76001 0.0
76004 0.0
76005 0.0
76008 0.0
76009 0.0
76012 0.0
76013 0.0
76016 0.0
76017 0.0
76020 0.0
76021 0.0
76024 0.0
76025 0.0
76028 0.0
76029 0.0
76032 0.0
76034 0.0
76035 0.0
76038 0.0
76039 0.0
76042 0.0
76043 0.0
76046 0.0
76047 0.0
76050 0.0
76051 0.0
76054 0.0
76055 0.0
76058 0.0
76059 0.0
76062 0.0
76063 0.0
76066 0.0
76067 0.0
76070 0.0
76071 0.0
76074 0.0
76075 0.0
76078 0.0
76079 0.0
76082 0.0
76083 0.0
76086 0.0
76087 0.0
76090 0.0
76091 0.0
76094 0.0
76095 0.0
76098 0.0
76099 0.0
76102 0.0
76103 0.0
76106 0.0
76107 0.0
76110 0.0
76111 0.0
76114 0.0
76115 0.0
76118 0.0
76119 0.0
76122 0.0
76123 0.0
76125 0.0
76128 0.0
76130 0.0
76131 0.0
76133 0.0
76136 0.0
76137 0.0
76140 0.0
76141 0.0
76142 0.0
76146 0.0
76147 0.0
76148 0.0
76150 0.0
76151 0.0
76155 0.0
76160 0.0
76161 0.0
76164 0.0
76165 0.0
76168 0.0
76169 0.0
76170 0.0
76171 0.0
76172 0.0
76175 0.0
76178 0.0
76180 0.0
76181 0.0
76185 0.0
76186 0.0
76187 0.0
76188 0.0
76191 0.0
76195 0.0
76196 0.0
76197 0.0
76200 0.0
76201 0.0
76204 0.0
76205 0.0
76208 0.0
76209 0.0
76212 0.0
76213 0.0
76214 0.0
76215 0.0
76216 0.0
76218 0.0
76219 0.0
76222 0.0
76223 0.0
76226 0.0
76227 0.0
76233 0.0
76236 0.0
76237 0.0
76240 0.0
76241 0.0
76244 0.0
76245 0.0
76246 0.0
76247 0.0
76248 0.0
76251 0.0
76256 0.0
76257 0.0
76258 0.0
76259 0.0
76260 0.0
76263 0.0
76267 0.0
76268 0.0
76270 0.0
76272 0.0
76273 0.0
76274 0.0
76277 0.0
76279 0.0
76282 0.0
76283 0.0
76284 0.0
76289 0.0
76290 0.0
76292 0.0
76293 0.0
76295 0.0
76298 0.0
76300 0.0
76301 0.0
76303 0.0
76306 0.0
76308 0.0
76309 0.0
76311 0.0
76314 0.0
76315 0.0
76316 0.0
76321 0.0
76322 0.0
76323 0.0
76324 0.0
76327 0.0
76330 0.0
76332 0.0
76333 0.0
76335 0.0
76338 0.0
76340 0.0
76341 0.0
76343 0.0
76346 0.0
76347 0.0
76348 0.0
76350 0.0
76353 0.0
76357 0.0
76359 0.0
76360 0.0
76363 0.0
76364 0.0
76366 0.0
76368 0.0
76369 0.0
76371 0.0
76374 0.0
76376 0.0
76377 0.0
76381 0.0
76382 0.0
76383 0.0
76384 0.0
76386 0.0
76389 0.0
76390 0.0
76391 0.0
76397 0.0
76400 0.0
76401 0.0
76402 0.0
76403 0.0
76404 0.0
76406 0.0
76407 0.0
76411 0.0
76414 0.0
76416 0.0
76417 0.0
76419 0.0
76422 0.0
76424 0.0
76425 0.0
76429 0.0
76431 0.0
76432 0.0
76434 0.0
76436 0.0
76437 0.0
76438 0.0
76441 0.0
76442 0.0
76445 0.0
76448 0.0
76449 0.0
76450 0.0
76453 0.0
76455 0.0
76456 0.0
76461 0.0
76462 0.0
76464 0.0
76465 0.0
76466 0.0
76469 0.0
76471 0.0
76474 0.0
76476 0.0
76477 0.0
76479 0.0
76482 0.0
76484 0.0
76485 0.0
76487 0.0
76490 0.0
76491 0.0
76492 0.0
76494 0.0
76497 0.0
76499 0.0
76502 0.0
76504 0.0
76505 0.0
76509 0.0
76511 0.0
76512 0.0
76514 0.0
76516 0.0
76517 0.0
76519 0.0
76522 0.0
76523 0.0
76524 0.0
76526 0.0
76529 0.0
76531 0.0
76534 0.0
76536 0.0
76537 0.0
76539 0.0
76542 0.0
76543 0.0
76544 0.0
76549 0.0
76550 0.0
76551 0.0
76552 0.0
76557 0.0
76558 0.0
76559 0.0
76560 0.0
76565 0.0
76566 0.0
76567 0.0
76568 0.0
76573 0.0
76574 0.0
76575 0.0
76576 0.0
76581 0.0
76583 0.0
76584 0.0
76586 0.0
76588 0.0
76589 0.0
76591 0.0
76594 0.0
76595 0.0
76596 0.0
76601 0.0
76603 0.0
76604 0.0
76606 0.0
76608 0.0
76609 0.0
76611 0.0
76616 0.0
76617 0.0
76618 0.0
76619 0.0
76620 0.0
76623 0.0
76626 0.0
76628 0.0
76629 0.0
76630 0.0
76631 0.0
76637 0.0
76638 0.0
76640 0.0
76641 0.0
76642 0.0
76643 0.0
76649 0.0
76650 0.0
76652 0.0
76653 0.0
76654 0.0
76655 0.0
76661 0.0
76662 0.0
76664 0.0
76665 0.0
76666 0.0
76667 0.0
76673 0.0
76674 0.0
76676 0.0
76677 0.0
76681 0.0
76682 0.0
76683 0.0
76684 0.0
76689 0.0
76690 0.0
76691 0.0
76692 0.0
76697 0.0
76700 0.0
76701 0.0
76704 0.0
76706 0.0
76707 0.0
76710 0.0
76711 0.0
76714 0.0
76715 0.0
76717 0.0
76720 0.0
76722 0.0
76723 0.0
76725 0.0
76728 0.0
76729 0.0
76730 0.0
76735 0.0
76736 0.0
76737 0.0
76740 0.0
76741 0.0
76744 0.0
76745 0.0
76748 0.0
76749 0.0
76750 0.0
76752 0.0
76753 0.0
76756 0.0
76757 0.0
76760 0.0
76761 0.0
76764 0.0
76765 0.0
76768 0.0
76769 0.0
76772 0.0
76773 0.0
76774 0.0
76776 0.0
76777 0.0
76778 0.0
76779 0.0
76782 0.0
76783 0.0
76789 0.0
76790 0.0
76792 0.0
76793 0.0
76794 0.0
76795 0.0
76799 0.0
76804 0.0
76805 0.0
76806 0.0
76808 0.0
76809 0.0
76810 0.0
76811 0.0
76815 0.0
76820 0.0
76821 0.0
76822 0.0
76824 0.0
76825 0.0
76826 0.0
76827 0.0
76833 0.0
76834 0.0
76836 0.0
76837 0.0
76838 0.0
76839 0.0
76845 0.0
76846 0.0
76848 0.0
76849 0.0
76851 0.0
76852 0.0
76853 0.0
76856 0.0
76858 0.0
76861 0.0
76863 0.0
76864 0.0
76869 0.0
76870 0.0
76872 0.0
76873 0.0
76874 0.0
76877 0.0
76879 0.0
76882 0.0
76883 0.0
76884 0.0
76887 0.0
76890 0.0
76892 0.0
76893 0.0
76895 0.0
76898 0.0
76900 0.0
76901 0.0
76904 0.0
76905 0.0
76908 0.0
76909 0.0
76912 0.0
76914 0.0
76915 0.0
76918 0.0
76919 0.0
76923 0.0
76924 0.0
76925 0.0
76926 0.0
76927 0.0
76928 0.0
76930 0.0
76931 0.0
76937 0.0
76940 0.0
76941 0.0
76942 0.0
76943 0.0
76944 0.0
76947 0.0
76952 0.0
76953 0.0
76954 0.0
76956 0.0
76957 0.0
76958 0.0
76959 0.0
76965 0.0
76966 0.0
76968 0.0
76969 0.0
76970 0.0
76971 0.0
76975 0.0
76980 0.0
76981 0.0
76982 0.0
76983 0.0
76984 0.0
76987 0.0
76992 0.0
76993 0.0
76994 0.0
76995 0.0
76996 0.0
76998 0.0
76999 0.0
77005 0.0
77008 0.0
77009 0.0
77010 0.0
77012 0.0
77013 0.0
77014 0.0
77015 0.0
77019 0.0
77024 0.0
77025 0.0
77028 0.0
77029 0.0
77030 0.0
77031 0.0
77032 0.0
77034 0.0
77035 0.0
77041 0.0
77044 0.0
77045 0.0
77046 0.0
77047 0.0
77048 0.0
77050 0.0
77051 0.0
77057 0.0
77058 0.0
77060 0.0
77061 0.0
77062 0.0
77063 0.0
77067 0.0
77072 0.0
77073 0.0
77074 0.0
77076 0.0
77077 0.0
77078 0.0
77079 0.0
77083 0.0
77088 0.0
77089 0.0
77092 0.0
77093 0.0
77094 0.0
77095 0.0
77096 0.0
77098 0.0
77099 0.0
77103 0.0
77104 0.0
77105 0.0
77108 0.0
77109 0.0
77112 0.0
77113 0.0
77116 0.0
77117 0.0
77118 0.0
77120 0.0
77121 0.0
77122 0.0
77123 0.0
77126 0.0
77127 0.0
77130 0.0
77131 0.0
77134 0.0
77135 0.0
77139 0.0
77144 0.0
77145 0.0
77148 0.0
77149 0.0
77152 0.0
77153 0.0
77156 0.0
77157 0.0
77158 0.0
77159 0.0
77160 0.0
77165 0.0
77167 0.0
77168 0.0
77170 0.0
77172 0.0
77173 0.0
77175 0.0
77178 0.0
77180 0.0
77181 0.0
77185 0.0
77186 0.0
77187 0.0
77188 0.0
77193 0.0
77195 0.0
77196 0.0
77198 0.0
77200 0.0
77201 0.0
77205 0.0
77206 0.0
77207 0.0
77208 0.0
77210 0.0
77213 0.0
77215 0.0
77218 0.0
77220 0.0
77221 0.0
77225 0.0
77227 0.0
77228 0.0
77230 0.0
77232 0.0
77233 0.0
77235 0.0
77238 0.0
77239 0.0
77240 0.0
77245 0.0
77247 0.0
77248 0.0
77250 0.0
77252 0.0
77253 0.0
77257 0.0
77258 0.0
77259 0.0
77260 0.0
77262 0.0
77265 0.0
77266 0.0
77269 0.0
77270 0.0
77273 0.0
77275 0.0
77279 0.0
77280 0.0
77283 0.0
77284 0.0
77287 0.0
77288 0.0
77290 0.0
77292 0.0
77293 0.0
77297 0.0
77299 0.0
77300 0.0
77302 0.0
77303 0.0
77304 0.0
77306 0.0
77309 0.0
77311 0.0
77314 0.0
77316 0.0
77317 0.0
77319 0.0
77322 0.0
77324 0.0
77325 0.0
77327 0.0
77330 0.0
77332 0.0
77333 0.0
77334 0.0
77335 0.0
77337 0.0
77340 0.0
77341 0.0
77342 0.0
77346 0.0
77347 0.0
77351 0.0
77352 0.0
77353 0.0
77354 0.0
77356 0.0
77357 0.0
77359 0.0
77362 0.0
77364 0.0
77365 0.0
77366 0.0
77367 0.0
77373 0.0
77374 0.0
77375 0.0
77376 0.0
77381 0.0
77383 0.0
77384 0.0
77386 0.0
77388 0.0
77389 0.0
77393 0.0
77395 0.0
77396 0.0
77398 0.0
77400 0.0
77401 0.0
77405 0.0
77406 0.0
77408 0.0
77409 0.0
77410 0.0
77411 0.0
77415 0.0
77420 0.0
77421 0.0
77424 0.0
77425 0.0
77428 0.0
77429 0.0
77432 0.0
77433 0.0
77436 0.0
77437 0.0
77440 0.0
77441 0.0
77444 0.0
77445 0.0
77448 0.0
77449 0.0
77452 0.0
77453 0.0
77456 0.0
77457 0.0
77460 0.0
77461 0.0
77464 0.0
77465 0.0
77468 0.0
77469 0.0
77472 0.0
77473 0.0
77476 0.0
77478 0.0
77479 0.0
77482 0.0
77483 0.0
77486 0.0
77487 0.0
77490 0.0
77491 0.0
77494 0.0
77495 0.0
77498 0.0
77499 0.0
77501 0.0
77504 0.0
77505 0.0
77508 0.0
77509 0.0
77512 0.0
77513 0.0
77514 0.0
77518 0.0
77519 0.0
77522 0.0
77523 0.0
77526 0.0
77527 0.0
77529 0.0
77532 0.0
77533 0.0
77536 0.0
77537 0.0
77540 0.0
77542 0.0
77543 0.0
77546 0.0
77547 0.0
77549 0.0
77552 0.0
77553 0.0
77554 0.0
77558 0.0
77559 0.0
77563 0.0
77564 0.0
77565 0.0
77568 0.0
77569 0.0
77570 0.0
77574 0.0
77575 0.0
77579 0.0
77580 0.0
77581 0.0
77584 0.0
77585 0.0
77588 0.0
77590 0.0
77591 0.0
77594 0.0
77595 0.0
77599 0.0
77600 0.0
77601 0.0
77604 0.0
77605 0.0
77608 0.0
77609 0.0
77610 0.0
77612 0.0
77613 0.0
77617 0.0
77618 0.0
77619 0.0
77620 0.0
77625 0.0
77626 0.0
77627 0.0
77628 0.0
77633 0.0
77634 0.0
77635 0.0
77636 0.0
77641 0.0
77644 0.0
77645 0.0
77646 0.0
77648 0.0
77649 0.0
77650 0.0
77651 0.0
77654 0.0
77655 0.0
77658 0.0
77659 0.0
77662 0.0
77663 0.0
77666 0.0
77667 0.0
77670 0.0
77671 0.0
77674 0.0
77675 0.0
77679 0.0
77684 0.0
77685 0.0
77686 0.0
77687 0.0
77688 0.0
77691 0.0
77696 0.0
77697 0.0
77698 0.0
77699 0.0
77700 0.0
77703 0.0
77708 0.0
77709 0.0
77710 0.0
77711 0.0
77712 0.0
77714 0.0
77715 0.0
77721 0.0
77724 0.0
77725 0.0
77726 0.0
77727 0.0
77728 0.0
77730 0.0
77731 0.0
77735 0.0
77740 0.0
77741 0.0
77744 0.0
77745 0.0
77746 0.0
77747 0.0
77748 0.0
77750 0.0
77751 0.0
77754 0.0
77755 0.0
77758 0.0
77759 0.0
77763 0.0
77768 0.0
77769 0.0
77772 0.0
77773 0.0
77776 0.0
77777 0.0
77778 0.0
77780 0.0
77781 0.0
77782 0.0
77783 0.0
77786 0.0
77787 0.0
77793 0.0
77794 0.0
77796 0.0
77797 0.0
77799 0.0
77802 0.0
77807 0.0
77808 0.0
77810 0.0
77811 0.0
77813 0.0
77816 0.0
77818 0.0
77819 0.0
77821 0.0
77822 0.0
77827 0.0
77828 0.0
77829 0.0
77833 0.0
77835 0.0
77836 0.0
77839 0.0
77840 0.0
77843 0.0
77844 0.0
77846 0.0
77848 0.0
77849 0.0
77851 0.0
77854 0.0
77856 0.0
77857 0.0
77859 0.0
77864 0.0
77865 0.0
77866 0.0
77867 0.0
77868 0.0
77870 0.0
77873 0.0
77874 0.0
77875 0.0
77876 0.0
77879 0.0
77882 0.0
77884 0.0
77885 0.0
77887 0.0
77890 0.0
77892 0.0
77893 0.0
77895 0.0
77900 0.0
77901 0.0
77902 0.0
77903 0.0
77904 0.0
77909 0.0
77910 0.0
77911 0.0
77912 0.0
77917 0.0
77918 0.0
77919 0.0
77920 0.0
77923 0.0
77928 0.0
77929 0.0
77932 0.0
77933 0.0
77934 0.0
77936 0.0
77937 0.0
77938 0.0
77939 0.0
77942 0.0
77943 0.0
77946 0.0
77947 0.0
77950 0.0
77951 0.0
77954 0.0
77955 0.0
77959 0.0
77964 0.0
77965 0.0
77968 0.0
77969 0.0
77970 0.0
77972 0.0
77973 0.0
77974 0.0
77975 0.0
77978 0.0
77979 0.0
77985 0.0
77988 0.0
77989 0.0
77990 0.0
77992 0.0
77993 0.0
77994 0.0
77995 0.0
78001 0.0
78004 0.0
78005 0.0
78006 0.0
78007 0.0
78008 0.0
78011 0.0
78016 0.0
78017 0.0
78018 0.0
78020 0.0
78021 0.0
78022 0.0
78023 0.0
78029 0.0
78032 0.0
78033 0.0
78036 0.0
78038 0.0
78039 0.0
78041 0.0
78042 0.0
78047 0.0
78048 0.0
78049 0.0
78052 0.0
78053 0.0
78056 0.0
78057 0.0
78058 0.0
78060 0.0
78061 0.0
78062 0.0
78063 0.0
78066 0.0
78069 0.0
78070 0.0
78073 0.0
78075 0.0
78078 0.0
78080 0.0
78081 0.0
78083 0.0
78086 0.0
78088 0.0
78089 0.0
78090 0.0
78091 0.0
78097 0.0
78098 0.0
78100 0.0
78101 0.0
78102 0.0
78103 0.0
78107 0.0
78112 0.0
78113 0.0
78116 0.0
78117 0.0
78120 0.0
78122 0.0
78123 0.0
78126 0.0
78127 0.0
78129 0.0
78132 0.0
78133 0.0
78134 0.0
78135 0.0
78136 0.0
78138 0.0
78139 0.0
78143 0.0
78148 0.0
78149 0.0
78152 0.0
78153 0.0
78154 0.0
78155 0.0
78156 0.0
78158 0.0
78159 0.0
78162 0.0
78163 0.0
78166 0.0
78167 0.0
78170 0.0
78171 0.0
78174 0.0
78175 0.0
78178 0.0
78179 0.0
78182 0.0
78183 0.0
78185 0.0
78188 0.0
78189 0.0
78192 0.0
78193 0.0
78196 0.0
78197 0.0
78200 0.0
78201 0.0
78202 0.0
78206 0.0
78207 0.0
78210 0.0
78211 0.0
78217 0.0
78220 0.0
78221 0.0
78224 0.0
78225 0.0
78228 0.0
78229 0.0
78230 0.0
78231 0.0
78232 0.0
78234 0.0
78235 0.0
78238 0.0
78239 0.0
78242 0.0
78243 0.0
78246 0.0
78247 0.0
78250 0.0
78251 0.0
78254 0.0
78255 0.0
78259 0.0
78260 0.0
78261 0.0
78264 0.0
78266 0.0
78267 0.0
78271 0.0
78272 0.0
78273 0.0
78276 0.0
78278 0.0
78279 0.0
78283 0.0
78284 0.0
78285 0.0
78286 0.0
78291 0.0
78292 0.0
78293 0.0
78294 0.0
78297 0.0
78300 0.0
78303 0.0
78304 0.0
78305 0.0
78306 0.0
78311 0.0
78312 0.0
78313 0.0
78314 0.0
78315 0.0
78316 0.0
78319 0.0
78320 0.0
78321 0.0
78322 0.0
78323 0.0
78324 0.0
78327 0.0
78330 0.0
78332 0.0
78333 0.0
78334 0.0
78335 0.0
78338 0.0
78339 0.0
78342 0.0
78343 0.0
78346 0.0
78347 0.0
78350 0.0
78351 0.0
78355 0.0
78356 0.0
78357 0.0
78360 0.0
78361 0.0
78362 0.0
78366 0.0
78368 0.0
78369 0.0
78370 0.0
78371 0.0
78374 0.0
78375 0.0
78378 0.0
78379 0.0
78385 0.0
78386 0.0
78387 0.0
78389 0.0
78392 0.0
78393 0.0
78396 0.0
78398 0.0
78399 0.0
78401 0.0
78404 0.0
78406 0.0
78407 0.0
78409 0.0
78412 0.0
78414 0.0
78415 0.0
78419 0.0
78420 0.0
78421 0.0
78422 0.0
78427 0.0
78428 0.0
78431 0.0
78432 0.0
78434 0.0
78435 0.0
78437 0.0
78438 0.0
78441 0.0
78442 0.0
78447 0.0
78448 0.0
78450 0.0
78451 0.0
78454 0.0
78455 0.0
78458 0.0
78459 0.0
78462 0.0
78463 0.0
78469 0.0
78471 0.0
78472 0.0
78474 0.0
78476 0.0
78477 0.0
78481 0.0
78482 0.0
78483 0.0
78484 0.0
78486 0.0
78489 0.0
78490 0.0
78491 0.0
78497 0.0
78498 0.0
78499 0.0
78500 0.0
78505 0.0
78506 0.0
78507 0.0
78508 0.0
78513 0.0
78514 0.0
78520 0.0
78521 0.0
78522 0.0
78523 0.0
78526 0.0
78527 0.0
78529 0.0
78532 0.0
78533 0.0
78536 0.0
78537 0.0
78540 0.0
78542 0.0
78543 0.0
78546 0.0
78547 0.0
78550 0.0
78551 0.0
78553 0.0
78556 0.0
78557 0.0
78560 0.0
78561 0.0
78564 0.0
78565 0.0
78568 0.0
78569 0.0
78572 0.0
78573 0.0
78576 0.0
78577 0.0
78580 0.0
78581 0.0
78584 0.0
78585 0.0
78588 0.0
78589 0.0
78590 0.0
78594 0.0
78595 0.0
78598 0.0
78599 0.0
78602 0.0
78603 0.0
78606 0.0
78607 0.0
78610 0.0
78611 0.0
78617 0.0
78618 0.0
78620 0.0
78621 0.0
78623 0.0
78628 0.0
78629 0.0
78630 0.0
78631 0.0
78632 0.0
78637 0.0
78640 0.0
78641 0.0
78644 0.0
78645 0.0
78648 0.0
78649 0.0
78652 0.0
78653 0.0
78656 0.0
78657 0.0
78660 0.0
78661 0.0
78664 0.0
78665 0.0
78668 0.0
78669 0.0
78672 0.0
78673 0.0
78674 0.0
78675 0.0
78676 0.0
78679 0.0
78680 0.0
78681 0.0
78682 0.0
78687 0.0
78688 0.0
78689 0.0
78690 0.0
78695 0.0
78696 0.0
78697 0.0
78700 0.0
78702 0.0
78703 0.0
78705 0.0
78708 0.0
78710 0.0
78711 0.0
78713 0.0
78716 0.0
78718 0.0
78719 0.0
78723 0.0
78724 0.0
78725 0.0
78726 0.0
78731 0.0
78732 0.0
78733 0.0
78734 0.0
78739 0.0
78740 0.0
78741 0.0
78742 0.0
78746 0.0
78747 0.0
78749 0.0
78752 0.0
78754 0.0
78755 0.0
78757 0.0
78758 0.0
78763 0.0
78764 0.0
78765 0.0
78766 0.0
78769 0.0
78772 0.0
78775 0.0
78776 0.0
78777 0.0
78778 0.0
78781 0.0
78784 0.0
78786 0.0
78787 0.0
78789 0.0
78790 0.0
78793 0.0
78795 0.0
78796 0.0
78798 0.0
78799 0.0
78800 0.0
78805 0.0
78806 0.0
78808 0.0
78809 0.0
78811 0.0
78814 0.0
78816 0.0
78817 0.0
78819 0.0
78822 0.0
78825 0.0
78826 0.0
78827 0.0
78828 0.0
78833 0.0
78834 0.0
78835 0.0
78836 0.0
78838 0.0
78839 0.0
78841 0.0
78844 0.0
78846 0.0
78847 0.0
78853 0.0
78854 0.0
78855 0.0
78860 0.0
78861 0.0
78864 0.0
78865 0.0
78868 0.0
78869 0.0
78870 0.0
78871 0.0
78872 0.0
78875 0.0
78880 0.0
78881 0.0
78882 0.0
78884 0.0
78885 0.0
78886 0.0
78887 0.0
78893 0.0
78896 0.0
78897 0.0
78898 0.0
78899 0.0
78900 0.0
78903 0.0
78908 0.0
78909 0.0
78910 0.0
78912 0.0
78913 0.0
78914 0.0
78915 0.0
78919 0.0
78924 0.0
78925 0.0
78926 0.0
78928 0.0
78929 0.0
78930 0.0
78931 0.0
78935 0.0
78940 0.0
78941 0.0
78944 0.0
78945 0.0
78946 0.0
78947 0.0
78948 0.0
78950 0.0
78951 0.0
78957 0.0
78960 0.0
78961 0.0
78962 0.0
78963 0.0
78964 0.0
78966 0.0
78967 0.0
78973 0.0
78976 0.0
78977 0.0
78978 0.0
78979 0.0
78980 0.0
78982 0.0
78985 0.0
78987 0.0
78990 0.0
78991 0.0
78992 0.0
78994 0.0
78997 0.0
78999 0.0
79002 0.0
79003 0.0
79004 0.0
79006 0.0
79009 0.0
79011 0.0
79014 0.0
79015 0.0
79016 0.0
79021 0.0
79022 0.0
79023 0.0
79024 0.0
79029 0.0
79031 0.0
79032 0.0
79034 0.0
79036 0.0
79037 0.0
79039 0.0
79042 0.0
79044 0.0
79045 0.0
79047 0.0
79050 0.0
79052 0.0
79053 0.0
79055 0.0
79060 0.0
79061 0.0
79062 0.0
79063 0.0
79064 0.0
79067 0.0
79072 0.0
79073 0.0
79074 0.0
79075 0.0
79076 0.0
79079 0.0
79084 0.0
79085 0.0
79086 0.0
79087 0.0
79088 0.0
79091 0.0
79096 0.0
79097 0.0
79098 0.0
79099 0.0
79100 0.0
79103 0.0
79108 0.0
79109 0.0
79110 0.0
79111 0.0
79112 0.0
79114 0.0
79115 0.0
79121 0.0
79122 0.0
79124 0.0
79125 0.0
79126 0.0
79127 0.0
79133 0.0
79134 0.0
79136 0.0
79137 0.0
79138 0.0
79139 0.0
79145 0.0
79146 0.0
79148 0.0
79149 0.0
79150 0.0
79151 0.0
79157 0.0
79158 0.0
79160 0.0
79161 0.0
79162 0.0
79163 0.0
79169 0.0
79170 0.0
79172 0.0
79173 0.0
79175 0.0
79178 0.0
79180 0.0
79181 0.0
79183 0.0
79188 0.0
79189 0.0
79190 0.0
79191 0.0
79192 0.0
79197 0.0
79198 0.0
79199 0.0
79200 0.0
79203 0.0
79206 0.0
79208 0.0
79209 0.0
79211 0.0
79214 0.0
79216 0.0
79217 0.0
79218 0.0
79219 0.0
79225 0.0
79226 0.0
79227 0.0
79228 0.0
79230 0.0
79231 0.0
79237 0.0
79240 0.0
79241 0.0
79242 0.0
79243 0.0
79244 0.0
79246 0.0
79247 0.0
79253 0.0
79256 0.0
79257 0.0
79258 0.0
79259 0.0
79260 0.0
79262 0.0
79263 0.0
79266 0.0
79267 0.0
79271 0.0
79272 0.0
79273 0.0
79276 0.0
79277 0.0
79280 0.0
79281 0.0
79284 0.0
79286 0.0
79287 0.0
79291 0.0
79292 0.0
79295 0.0
79299 0.0
79300 0.0
79302 0.0
79304 0.0
79305 0.0
79306 0.0
79309 0.0
79310 0.0
79313 0.0
79314 0.0
79317 0.0
79318 0.0
79321 0.0
79324 0.0
79325 0.0
79327 0.0
79328 0.0
79329 0.0
79330 0.0
79331 0.0
79334 0.0
79335 0.0
79338 0.0
79342 0.0
79345 0.0
79346 0.0
79349 0.0
79350 0.0
79353 0.0
79354 0.0
79357 0.0
79358 0.0
79361 0.0
79362 0.0
79365 0.0
79369 0.0
79371 0.0
79372 0.0
79374 0.0
79375 0.0
79377 0.0
79380 0.0
79382 0.0
79383 0.0
79388 0.0
79392 0.0
79393 0.0
79394 0.0
79397 0.0
79398 0.0
79401 0.0
79402 0.0
79405 0.0
79406 0.0
79409 0.0
79410 0.0
79413 0.0
79414 0.0
79417 0.0
79419 0.0
79424 0.0
79425 0.0
79426 0.0
79427 0.0
79428 0.0
79433 0.0
79434 0.0
79435 0.0
79436 0.0
79441 0.0
79443 0.0
79444 0.0
79446 0.0
79448 0.0
79449 0.0
79453 0.0
79455 0.0
79456 0.0
79458 0.0
79460 0.0
79461 0.0
79462 0.0
79465 0.0
79467 0.0
79472 0.0
79473 0.0
79474 0.0
79476 0.0
79477 0.0
79478 0.0
79479 0.0
79485 0.0
79486 0.0
79488 0.0
79489 0.0
79490 0.0
79491 0.0
79497 0.0
79498 0.0
79499 0.0
79500 0.0
79503 0.0
79508 0.0
79509 0.0
79510 0.0
79511 0.0
79512 0.0
79517 0.0
79518 0.0
79520 0.0
79521 0.0
79522 0.0
79523 0.0
79525 0.0
79528 0.0
79529 0.0
79530 0.0
79534 0.0
79535 0.0
79537 0.0
79540 0.0
79542 0.0
79543 0.0
79546 0.0
79547 0.0
79548 0.0
79549 0.0
79550 0.0
79551 0.0
79555 0.0
79560 0.0
79561 0.0
79562 0.0
79563 0.0
79564 0.0
79566 0.0
79567 0.0
79573 0.0
79576 0.0
79577 0.0
79578 0.0
79579 0.0
79580 0.0
79582 0.0
79583 0.0
79589 0.0
79592 0.0
79593 0.0
79595 0.0
79596 0.0
79597 0.0
79600 0.0
79601 0.0
79602 0.0
79606 0.0
79607 0.0
79611 0.0
79612 0.0
79613 0.0
79616 0.0
79617 0.0
79618 0.0
79622 0.0
79623 0.0
79627 0.0
79628 0.0
79629 0.0
79632 0.0
79633 0.0
79634 0.0
79636 0.0
79637 0.0
79638 0.0
79643 0.0
79647 0.0
79650 0.0
79652 0.0
79653 0.0
79655 0.0
79658 0.0
79660 0.0
79661 0.0
79665 0.0
79667 0.0
79668 0.0
79670 0.0
79671 0.0
79672 0.0
79674 0.0
79677 0.0
79678 0.0
79681 0.0
79683 0.0
79684 0.0
79686 0.0
79688 0.0
79689 0.0
79690 0.0
79693 0.0
79695 0.0
79699 0.0
79700 0.0
79702 0.0
79704 0.0
79705 0.0
79709 0.0
79711 0.0
79712 0.0
79715 0.0
79716 0.0
79719 0.0
79720 0.0
79723 0.0
79724 0.0
79726 0.0
79727 0.0
79728 0.0
79730 0.0
79733 0.0
79734 0.0
79737 0.0
79738 0.0
79741 0.0
79742 0.0
79745 0.0
79749 0.0
79751 0.0
79752 0.0
79754 0.0
79755 0.0
79756 0.0
79758 0.0
79761 0.0
79763 0.0
79766 0.0
79767 0.0
79768 0.0
79773 0.0
79775 0.0
79776 0.0
79778 0.0
79780 0.0
79781 0.0
79785 0.0
79786 0.0
79787 0.0
79788 0.0
79790 0.0
79793 0.0
79795 0.0
79800 0.0
79801 0.0
79802 0.0
79803 0.0
79804 0.0
79807 0.0
79812 0.0
79813 0.0
79814 0.0
79816 0.0
79817 0.0
79818 0.0
79819 0.0
79825 0.0
79828 0.0
79829 0.0
79830 0.0
79831 0.0
79832 0.0
79835 0.0
79840 0.0
79841 0.0
79842 0.0
79844 0.0
79845 0.0
79846 0.0
79847 0.0
79853 0.0
79854 0.0
79856 0.0
79857 0.0
79858 0.0
79859 0.0
79865 0.0
79866 0.0
79867 0.0
79868 0.0
79871 0.0
79876 0.0
79877 0.0
79878 0.0
79879 0.0
79880 0.0
79885 0.0
79886 0.0
79888 0.0
79889 0.0
79890 0.0
79891 0.0
79897 0.0
79898 0.0
79899 0.0
79900 0.0
79905 0.0
79906 0.0
79907 0.0
79908 0.0
79913 0.0
79914 0.0
79915 0.0
79916 0.0
79918 0.0
79921 0.0
79923 0.0
79926 0.0
79928 0.0
79929 0.0
79931 0.0
79934 0.0
79936 0.0
79937 0.0
79939 0.0
79942 0.0
79944 0.0
79945 0.0
79949 0.0
79950 0.0
79951 0.0
79952 0.0
79957 0.0
79958 0.0
79959 0.0
79960 0.0
79965 0.0
79966 0.0
79967 0.0
79968 0.0
79973 0.0
79974 0.0
79975 0.0
79976 0.0
79978 0.0
79979 0.0
79985 0.0
79986 0.0
79988 0.0
79989 0.0
79990 0.0
79991 0.0
79997 0.0
79998 0.0
80000 0.0
80001 0.0
80002 0.0
80003 0.0
80007 0.0
80010 0.0
80011 0.0
80012 0.0
80013 0.0
80016 0.0
80029 0.0
80034 0.0
80035 0.0
80036 0.0
80037 0.0
80043 0.0
80044 0.0
80063 0.0
80064 0.0
80065 0.0
80066 0.0
80067 0.0
80107 0.0
80108 0.0
80110 0.0
80111 0.0
80112 0.0
80115 0.0
80121 0.0
80122 0.0
80125 0.0
80126 0.0
80127 0.0
80128 0.0
80130 0.0
80133 0.0
80135 0.0
80136 0.0
80138 0.0
80141 0.0
80143 0.0
80144 0.0
80146 0.0
80149 0.0
80151 0.0
80152 0.0
80154 0.0
80157 0.0
80159 0.0
80160 0.0
80162 0.0
80164 0.0
80165 0.0
80167 0.0
80171 0.0
80172 0.0
80174 0.0
80176 0.0
80177 0.0
80181 0.0
80183 0.0
80186 0.0
80187 0.0
80188 0.0
80190 0.0
80192 0.0
80193 0.0
80195 0.0
80200 0.0
80201 0.0
80202 0.0
80203 0.0
80209 0.0
80210 0.0
80211 0.0
80212 0.0
80214 0.0
80215 0.0
80216 0.0
80219 0.0
80225 0.0
80226 0.0
80229 0.0
80230 0.0
80233 0.0
80234 0.0
80235 0.0
80236 0.0
80238 0.0
80239 0.0
80240 0.0
80243 0.0
80244 0.0
80249 0.0
80253 0.0
80254 0.0
80257 0.0
80258 0.0
80259 0.0
80260 0.0
80262 0.0
80263 0.0
80264 0.0
80267 0.0
80268 0.0
80273 0.0
80277 0.0
80278 0.0
80281 0.0
80282 0.0
80284 0.0
80285 0.0
80286 0.0
80295 0.0
80300 0.0
80301 0.0
80302 0.0
80303 0.0
80333 0.0
80335 0.0
80336 0.0
80339 0.0
80340 0.0
80342 0.0
80344 0.0
80345 0.0
80346 0.0
80349 0.0
80428 0.0
80429 0.0
80431 0.0
80434 0.0
80438 0.0
80439 0.0
80440 0.0
80441 0.0
80443 0.0
80444 0.0
80445 0.0
80450 0.0
80454 0.0
80455 0.0
80456 0.0
80457 0.0
80459 0.0
80460 0.0
80466 0.0
80467 0.0
80468 0.0
80469 0.0
80471 0.0
80472 0.0
80478 0.0
80479 0.0
80480 0.0
80481 0.0
80483 0.0
80486 0.0
80489 0.0
80490 0.0
80491 0.0
80492 0.0
80493 0.0
80498 0.0
80500 0.0
80501 0.0
80503 0.0
80504 0.0
80510 0.0
80511 0.0
80512 0.0
80513 0.0
80515 0.0
80518 0.0
80521 0.0
80522 0.0
80523 0.0
80524 0.0
80525 0.0
80530 0.0
80533 0.0
80534 0.0
80535 0.0
80536 0.0
80542 0.0
80543 0.0
80544 0.0
80545 0.0
80547 0.0
80548 0.0
80553 0.0
80554 0.0
80555 0.0
80556 0.0
80557 0.0
80562 0.0
80565 0.0
80566 0.0
80567 0.0
80568 0.0
80574 0.0
80575 0.0
80576 0.0
80577 0.0
80579 0.0
80580 0.0
80585 0.0
80586 0.0
80587 0.0
80588 0.0
80589 0.0
80594 0.0
80597 0.0
80598 0.0
80599 0.0
80600 0.0
80606 0.0
80607 0.0
80608 0.0
80609 0.0
80611 0.0
80612 0.0
80617 0.0
80618 0.0
80619 0.0
80620 0.0
80621 0.0
80626 0.0
80629 0.0
80630 0.0
80631 0.0
80632 0.0
80638 0.0
80639 0.0
80640 0.0
80641 0.0
80643 0.0
80644 0.0
80649 0.0
80650 0.0
80651 0.0
80652 0.0
80653 0.0
80658 0.0
80661 0.0
80662 0.0
80663 0.0
80664 0.0
80670 0.0
80671 0.0
80672 0.0
80673 0.0
80675 0.0
80676 0.0
80681 0.0
80682 0.0
80683 0.0
80684 0.0
80685 0.0
80690 0.0
80693 0.0
80694 0.0
80695 0.0
80696 0.0
80702 0.0
80703 0.0
80704 0.0
80705 0.0
80707 0.0
80708 0.0
80714 0.0
80715 0.0
80716 0.0
80717 0.0
80719 0.0
80722 0.0
80725 0.0
80726 0.0
80727 0.0
80729 0.0
80730 0.0
80735 0.0
80736 0.0
80739 0.0
80740 0.0
80747 0.0
80748 0.0
80751 0.0
80752 0.0
80755 0.0
80756 0.0
80759 0.0
80760 0.0
80766 0.0
80769 0.0
80770 0.0
80773 0.0
80774 0.0
80781 0.0
80782 0.0
80785 0.0
80786 0.0
80789 0.0
80790 0.0
80793 0.0
80794 0.0
80797 0.0
80798 0.0
80801 0.0
80802 0.0
80812 0.0
80815 0.0
80832 0.0
80833 0.0
80836 0.0
80837 0.0
80840 0.0
80841 0.0
80844 0.0
80845 0.0
80848 0.0
80849 0.0
80852 0.0
80853 0.0
80856 0.0
80857 0.0
80860 0.0
80861 0.0
80865 0.0
80867 0.0
80870 0.0
80871 0.0
80874 0.0
80875 0.0
80878 0.0
80879 0.0
80882 0.0
80885 0.0
80886 0.0
80887 0.0
80888 0.0
80890 0.0
80897 0.0
80911 0.0
80912 0.0
80914 0.0
80917 0.0
80921 0.0
80922 0.0
80923 0.0
80924 0.0
80926 0.0
80927 0.0
80932 0.0
80933 0.0
80934 0.0
80935 0.0
80936 0.0
80941 0.0
80943 0.0
80944 0.0
80946 0.0
80949 0.0
80952 0.0
80953 0.0
80954 0.0
80955 0.0
80959 0.0
80962 0.0
80964 0.0
80965 0.0
80974 0.0
80975 0.0
80976 0.0
80979 0.0
80981 0.0
80984 0.0
80986 0.0
80987 0.0
80988 0.0
80991 0.0
80993 0.0
80994 0.0
80996 0.0
80998 0.0
80999 0.0
81006 0.0
81007 0.0
81010 0.0
81011 0.0
81023 0.0
81024 0.0
81027 0.0
81028 0.0
81030 0.0
81034 0.0
81037 0.0
81039 0.0
81040 0.0
81041 0.0
81046 0.0
81047 0.0
81062 0.0
81063 0.0
81064 0.0
81065 0.0
81070 0.0
81071 0.0
81072 0.0
81073 0.0
81091 0.0
81092 0.0
81094 0.0
81097 0.0
81100 0.0
81101 0.0
81103 0.0
81122 0.0
81123 0.0
81125 0.0
81130 0.0
81131 0.0
81132 0.0
81133 0.0
81138 0.0
81139 0.0
81140 0.0
81143 0.0
81145 0.0
81146 0.0
81148 0.0
81149 0.0
81150 0.0
81152 0.0
81155 0.0
81157 0.0
81158 0.0
81160 0.0
81163 0.0
81165 0.0
81168 0.0
81170 0.0
81171 0.0
81172 0.0