#    0.0001    0.0001       500       100         1         0         1
#2    0      0     2     0       0      0        1e-3
#iacl norder level north iredsys rrctol idroptol epsrn
#
#    0.0001    0.0001       500       100         1         0         5
#         3         0         0         100000

begin options
  print_option summary
end options

begin nonlinear
  outer_dvclose   1.0e-04
  outer_maximum  500
  under_relaxation  none
  #linear_solver xmd
end nonlinear

begin linear
  inner_maximum  100
  inner_dvclose   1.e-04
  inner_rclose   1e6
  linear_acceleration  bicgstab
  number_orthogonalizations 2
  relaxation_factor 0.0
end linear

begin xmd
	inner_dvclose 1.0e-4
    inner_maximum 100
	linear_acceleration bicgstab
	reordering_method none
	preconditioner_levels 0
	number_orthogonalizations 2
	inner_rclose 0.
	preconditioner_drop_tolerance 0.
end xmd
