#    0.0001    0.0001       500       100         1         0         1
#2    0      0     2     0       0      0        1e-3
#IACL NORDER LEVEL NORTH IREDSYS RRCTOL IDROPTOL EPSRN
#
#    0.0001    0.0001       500       100         1         0         5
#         3         0         0         100000

BEGIN Options
  PRINT_OPTION SUMMARY
END Options

BEGIN Nonlinear
  OUTER_HCLOSE   1.0E-04
  OUTER_MAXIMUM  500
  UNDER_RELAXATION  NONE
  #linear_solver xmd
END Nonlinear

BEGIN LINEAR
  INNER_MAXIMUM  100
  INNER_HCLOSE   1.E-04
  INNER_RCLOSE   1e6
  LINEAR_ACCELERATION  bicgstab
  NUMBER_ORTHOGONALIZATIONS 2
  RELAXATION_FACTOR 0.0
END LINEAR

begin xmd
	inner_hclose 1.0e-4
    inner_maximum 100
	LINEAR_ACCELERATION bicgstab
	reordering_method none
	PRECONDITIONER_LEVELS 0
	NUMBER_ORTHOGONALIZATIONS 2
	inner_rclose 0.
	PRECONDITIONER_DROP_TOLERANCE 0.
end xmd
