BEGIN OPTIONS
  TIME_UNITS DAYS
END OPTIONS

BEGIN DIMENSIONS
  NPER 100
END DIMENSIONS

BEGIN PERIODDATA
      1.000000             1  1.000000 TR
      1.000000             1  1.000000 TR
      1.000000             1  1.000000 TR
      1.000000             1  1.000000 TR
      1.000000             1  1.000000 TR
      1.000000             1  1.000000 TR
      1.000000             1  1.000000 TR
      1.000000             1  1.000000 TR
      1.000000             1  1.000000 TR
      1.000000             1  1.000000 TR
      1.000000             1  1.000000 TR
      1.000000             1  1.000000 TR
      1.000000             1  1.000000 TR
      1.000000             1  1.000000 TR
      1.000000             1  1.000000 TR
      1.000000             1  1.000000 TR
      1.000000             1  1.000000 TR
      1.000000             1  1.000000 TR
      1.000000             1  1.000000 TR
      1.000000             1  1.000000 TR
      1.000000             1  1.000000 TR
      1.000000             1  1.000000 TR
      1.000000             1  1.000000 TR
      1.000000             1  1.000000 TR
      1.000000             1  1.000000 TR
      1.000000             1  1.000000 TR
      1.000000             1  1.000000 TR
      1.000000             1  1.000000 TR
      1.000000             1  1.000000 TR
      1.000000             1  1.000000 TR
      1.000000             1  1.000000 TR
      1.000000             1  1.000000 TR
      1.000000             1  1.000000 TR
      1.000000             1  1.000000 TR
      1.000000             1  1.000000 TR
      1.000000             1  1.000000 TR
      1.000000             1  1.000000 TR
      1.000000             1  1.000000 TR
      1.000000             1  1.000000 TR
      1.000000             1  1.000000 TR
      1.000000             1  1.000000 TR
      1.000000             1  1.000000 TR
      1.000000             1  1.000000 TR
      1.000000             1  1.000000 TR
      1.000000             1  1.000000 TR
      1.000000             1  1.000000 TR
      1.000000             1  1.000000 TR
      1.000000             1  1.000000 TR
      1.000000             1  1.000000 TR
      1.000000             1  1.000000 TR
      1.000000             1  1.000000 TR
      1.000000             1  1.000000 TR
      1.000000             1  1.000000 TR
      1.000000             1  1.000000 TR
      1.000000             1  1.000000 TR
      1.000000             1  1.000000 TR
      1.000000             1  1.000000 TR
      1.000000             1  1.000000 TR
      1.000000             1  1.000000 TR
      1.000000             1  1.000000 TR
      1.000000             1  1.000000 TR
      1.000000             1  1.000000 TR
      1.000000             1  1.000000 TR
      1.000000             1  1.000000 TR
      1.000000             1  1.000000 TR
      1.000000             1  1.000000 TR
      1.000000             1  1.000000 TR
      1.000000             1  1.000000 TR
      1.000000             1  1.000000 TR
      1.000000             1  1.000000 TR
      1.000000             1  1.000000 TR
      1.000000             1  1.000000 TR
      1.000000             1  1.000000 TR
      1.000000             1  1.000000 TR
      1.000000             1  1.000000 TR
      1.000000             1  1.000000 TR
      1.000000             1  1.000000 TR
      1.000000             1  1.000000 TR
      1.000000             1  1.000000 TR
      1.000000             1  1.000000 TR
      1.000000             1  1.000000 TR
      1.000000             1  1.000000 TR
      1.000000             1  1.000000 TR
      1.000000             1  1.000000 TR
      1.000000             1  1.000000 TR
      1.000000             1  1.000000 TR
      1.000000             1  1.000000 TR
      1.000000             1  1.000000 TR
      1.000000             1  1.000000 TR
      1.000000             1  1.000000 TR
      1.000000             1  1.000000 TR
      1.000000             1  1.000000 TR
      1.000000             1  1.000000 TR
      1.000000             1  1.000000 TR
      1.000000             1  1.000000 TR
      1.000000             1  1.000000 TR
      1.000000             1  1.000000 TR
      1.000000             1  1.000000 TR
      1.000000             1  1.000000 TR
      1.000000             1  1.000000 TR
END PERIODDATA

      1.000000             1  1.000000 TR
      1.000000             1  1.000000 TR
      1.000000             1  1.000000 TR
      1.000000             1  1.000000 TR
      1.000000             1  1.000000 TR
      1.000000             1  1.000000 TR
      1.000000             1  1.000000 TR
      1.000000             1  1.000000 TR
      1.000000             1  1.000000 TR
      1.000000             1  1.000000 TR
      1.000000             1  1.000000 TR
      1.000000             1  1.000000 TR
      1.000000             1  1.000000 TR
      1.000000             1  1.000000 TR
      1.000000             1  1.000000 TR
      1.000000             1  1.000000 TR
      1.000000             1  1.000000 TR
      1.000000             1  1.000000 TR
      1.000000             1  1.000000 TR
      1.000000             1  1.000000 TR
      1.000000             1  1.000000 TR
      1.000000             1  1.000000 TR
      1.000000             1  1.000000 TR
      1.000000             1  1.000000 TR
      1.000000             1  1.000000 TR
      1.000000             1  1.000000 TR
      1.000000             1  1.000000 TR
      1.000000             1  1.000000 TR
      1.000000             1  1.000000 TR
      1.000000             1  1.000000 TR
      1.000000             1  1.000000 TR
      1.000000             1  1.000000 TR
      1.000000             1  1.000000 TR
      1.000000             1  1.000000 TR
      1.000000             1  1.000000 TR
      1.000000             1  1.000000 TR
      1.000000             1  1.000000 TR
      1.000000             1  1.000000 TR
      1.000000             1  1.000000 TR
      1.000000             1  1.000000 TR
      1.000000             1  1.000000 TR
      1.000000             1  1.000000 TR
      1.000000             1  1.000000 TR
      1.000000             1  1.000000 TR
      1.000000             1  1.000000 TR
      1.000000             1  1.000000 TR
      1.000000             1  1.000000 TR
      1.000000             1  1.000000 TR
      1.000000             1  1.000000 TR
      1.000000             1  1.000000 TR
      1.000000             1  1.000000 TR
      1.000000             1  1.000000 TR
      1.000000             1  1.000000 TR
      1.000000             1  1.000000 TR
      1.000000             1  1.000000 TR
      1.000000             1  1.000000 TR
      1.000000             1  1.000000 TR
      1.000000             1  1.000000 TR
      1.000000             1  1.000000 TR
      1.000000             1  1.000000 TR
      1.000000             1  1.000000 TR
      1.000000             1  1.000000 TR
      1.000000             1  1.000000 TR
      1.000000             1  1.000000 TR
      1.000000             1  1.000000 TR
      1.000000             1  1.000000 TR
      1.000000             1  1.000000 TR
      1.000000             1  1.000000 TR
      1.000000             1  1.000000 TR
      1.000000             1  1.000000 TR
      1.000000             1  1.000000 TR
      1.000000             1  1.000000 TR
      1.000000             1  1.000000 TR
      1.000000             1  1.000000 TR
      1.000000             1  1.000000 TR
      1.000000             1  1.000000 TR
      1.000000             1  1.000000 TR
      1.000000             1  1.000000 TR
      1.000000             1  1.000000 TR
      1.000000             1  1.000000 TR
      1.000000             1  1.000000 TR
      1.000000             1  1.000000 TR
      1.000000             1  1.000000 TR
      1.000000             1  1.000000 TR
      1.000000             1  1.000000 TR
      1.000000             1  1.000000 TR
      1.000000             1  1.000000 TR
      1.000000             1  1.000000 TR
      1.000000             1  1.000000 TR
      1.000000             1  1.000000 TR
      1.000000             1  1.000000 TR
      1.000000             1  1.000000 TR
      1.000000             1  1.000000 TR
      1.000000             1  1.000000 TR
      1.000000             1  1.000000 TR
      1.000000             1  1.000000 TR
      1.000000             1  1.000000 TR
      1.000000             1  1.000000 TR
      1.000000             1  1.000000 TR
      1.000000             1  1.000000 TR
      1.000000             1  1.000000 TR
      1.000000             1  1.000000 TR
      1.000000             1  1.000000 TR
      1.000000             1  1.000000 TR
      1.000000             1  1.000000 TR
      1.000000             1  1.000000 TR
      1.000000             1  1.000000 TR
      1.000000             1  1.000000 TR
      1.000000             1  1.000000 TR
      1.000000             1  1.000000 TR
      1.000000             1  1.000000 TR
      1.000000             1  1.000000 TR
      1.000000             1  1.000000 TR
      1.000000             1  1.000000 TR
      1.000000             1  1.000000 TR
      1.000000             1  1.000000 TR
      1.000000             1  1.000000 TR
      1.000000             1  1.000000 TR
      1.000000             1  1.000000 TR
      1.000000             1  1.000000 TR
      1.000000             1  1.000000 TR
      1.000000             1  1.000000 TR
      1.000000             1  1.000000 TR
      1.000000             1  1.000000 TR
      1.000000             1  1.000000 TR
      1.000000             1  1.000000 TR
      1.000000             1  1.000000 TR
      1.000000             1  1.000000 TR
      1.000000             1  1.000000 TR
      1.000000             1  1.000000 TR
      1.000000             1  1.000000 TR
      1.000000             1  1.000000 TR
      1.000000             1  1.000000 TR
      1.000000             1  1.000000 TR
      1.000000             1  1.000000 TR
      1.000000             1  1.000000 TR
      1.000000             1  1.000000 TR
      1.000000             1  1.000000 TR
      1.000000             1  1.000000 TR
      1.000000             1  1.000000 TR
      1.000000             1  1.000000 TR
      1.000000             1  1.000000 TR
      1.000000             1  1.000000 TR
      1.000000             1  1.000000 TR
      1.000000             1  1.000000 TR
      1.000000             1  1.000000 TR
      1.000000             1  1.000000 TR
      1.000000             1  1.000000 TR
      1.000000             1  1.000000 TR
      1.000000             1  1.000000 TR
      1.000000             1  1.000000 TR
      1.000000             1  1.000000 TR
      1.000000             1  1.000000 TR
      1.000000             1  1.000000 TR
      1.000000             1  1.000000 TR
      1.000000             1  1.000000 TR
      1.000000             1  1.000000 TR
      1.000000             1  1.000000 TR
      1.000000             1  1.000000 TR
      1.000000             1  1.000000 TR
      1.000000             1  1.000000 TR
      1.000000             1  1.000000 TR
      1.000000             1  1.000000 TR
      1.000000             1  1.000000 TR
      1.000000             1  1.000000 TR
      1.000000             1  1.000000 TR
      1.000000             1  1.000000 TR
      1.000000             1  1.000000 TR
      1.000000             1  1.000000 TR
      1.000000             1  1.000000 TR
      1.000000             1  1.000000 TR
      1.000000             1  1.000000 TR
      1.000000             1  1.000000 TR
      1.000000             1  1.000000 TR
      1.000000             1  1.000000 TR
      1.000000             1  1.000000 TR
      1.000000             1  1.000000 TR
      1.000000             1  1.000000 TR
      1.000000             1  1.000000 TR
      1.000000             1  1.000000 TR
      1.000000             1  1.000000 TR
      1.000000             1  1.000000 TR
      1.000000             1  1.000000 TR
      1.000000             1  1.000000 TR
      1.000000             1  1.000000 TR
      1.000000             1  1.000000 TR
      1.000000             1  1.000000 TR
      1.000000             1  1.000000 TR
      1.000000             1  1.000000 TR
      1.000000             1  1.000000 TR
      1.000000             1  1.000000 TR
      1.000000             1  1.000000 TR
      1.000000             1  1.000000 TR
      1.000000             1  1.000000 TR
      1.000000             1  1.000000 TR
      1.000000             1  1.000000 TR
      1.000000             1  1.000000 TR
      1.000000             1  1.000000 TR
      1.000000             1  1.000000 TR
      1.000000             1  1.000000 TR
      1.000000             1  1.000000 TR
      1.000000             1  1.000000 TR
      1.000000             1  1.000000 TR
      1.000000             1  1.000000 TR
      1.000000             1  1.000000 TR
      1.000000             1  1.000000 TR
      1.000000             1  1.000000 TR
      1.000000             1  1.000000 TR
      1.000000             1  1.000000 TR
      1.000000             1  1.000000 TR
      1.000000             1  1.000000 TR
      1.000000             1  1.000000 TR
      1.000000             1  1.000000 TR
      1.000000             1  1.000000 TR
      1.000000             1  1.000000 TR
      1.000000             1  1.000000 TR
      1.000000             1  1.000000 TR
      1.000000             1  1.000000 TR
      1.000000             1  1.000000 TR
      1.000000             1  1.000000 TR
      1.000000             1  1.000000 TR
      1.000000             1  1.000000 TR
      1.000000             1  1.000000 TR
      1.000000             1  1.000000 TR
      1.000000             1  1.000000 TR
      1.000000             1  1.000000 TR
      1.000000             1  1.000000 TR
      1.000000             1  1.000000 TR
      1.000000             1  1.000000 TR
      1.000000             1  1.000000 TR
      1.000000             1  1.000000 TR
      1.000000             1  1.000000 TR
      1.000000             1  1.000000 TR
      1.000000             1  1.000000 TR
      1.000000             1  1.000000 TR
      1.000000             1  1.000000 TR
      1.000000             1  1.000000 TR
      1.000000             1  1.000000 TR
      1.000000             1  1.000000 TR
      1.000000             1  1.000000 TR
      1.000000             1  1.000000 TR
      1.000000             1  1.000000 TR
      1.000000             1  1.000000 TR
      1.000000             1  1.000000 TR
      1.000000             1  1.000000 TR
      1.000000             1  1.000000 TR
      1.000000             1  1.000000 TR
      1.000000             1  1.000000 TR
      1.000000             1  1.000000 TR
      1.000000             1  1.000000 TR
      1.000000             1  1.000000 TR
      1.000000             1  1.000000 TR
      1.000000             1  1.000000 TR
      1.000000             1  1.000000 TR
      1.000000             1  1.000000 TR
      1.000000             1  1.000000 TR
      1.000000             1  1.000000 TR
      1.000000             1  1.000000 TR
      1.000000             1  1.000000 TR
      1.000000             1  1.000000 TR
      1.000000             1  1.000000 TR
      1.000000             1  1.000000 TR
      1.000000             1  1.000000 TR
      1.000000             1  1.000000 TR
      1.000000             1  1.000000 TR
      1.000000             1  1.000000 TR
      1.000000             1  1.000000 TR
      1.000000             1  1.000000 TR
      1.000000             1  1.000000 TR
      1.000000             1  1.000000 TR
      1.000000             1  1.000000 TR
      1.000000             1  1.000000 TR
      1.000000             1  1.000000 TR
      1.000000             1  1.000000 TR
      1.000000             1  1.000000 TR
      1.000000             1  1.000000 TR
      1.000000             1  1.000000 TR
      1.000000             1  1.000000 TR
      1.000000             1  1.000000 TR
      1.000000             1  1.000000 TR
      1.000000             1  1.000000 TR
      1.000000             1  1.000000 TR
      1.000000             1  1.000000 TR
      1.000000             1  1.000000 TR
      1.000000             1  1.000000 TR
      1.000000             1  1.000000 TR
      1.000000             1  1.000000 TR
      1.000000             1  1.000000 TR
      1.000000             1  1.000000 TR
      1.000000             1  1.000000 TR
      1.000000             1  1.000000 TR
      1.000000             1  1.000000 TR
      1.000000             1  1.000000 TR
      1.000000             1  1.000000 TR
      1.000000             1  1.000000 TR
      1.000000             1  1.000000 TR
      1.000000             1  1.000000 TR
      1.000000             1  1.000000 TR
      1.000000             1  1.000000 TR
      1.000000             1  1.000000 TR
      1.000000             1  1.000000 TR
      1.000000             1  1.000000 TR
      1.000000             1  1.000000 TR
      1.000000             1  1.000000 TR
      1.000000             1  1.000000 TR
      1.000000             1  1.000000 TR
      1.000000             1  1.000000 TR
      1.000000             1  1.000000 TR
      1.000000             1  1.000000 TR
      1.000000             1  1.000000 TR
      1.000000             1  1.000000 TR
      1.000000             1  1.000000 TR
      1.000000             1  1.000000 TR
      1.000000             1  1.000000 TR
      1.000000             1  1.000000 TR
      1.000000             1  1.000000 TR
      1.000000             1  1.000000 TR
      1.000000             1  1.000000 TR
      1.000000             1  1.000000 TR
      1.000000             1  1.000000 TR
      1.000000             1  1.000000 TR
      1.000000             1  1.000000 TR
      1.000000             1  1.000000 TR
      1.000000             1  1.000000 TR
      1.000000             1  1.000000 TR
      1.000000             1  1.000000 TR
      1.000000             1  1.000000 TR
      1.000000             1  1.000000 TR
      1.000000             1  1.000000 TR
      1.000000             1  1.000000 TR
      1.000000             1  1.000000 TR
      1.000000             1  1.000000 TR
      1.000000             1  1.000000 TR
      1.000000             1  1.000000 TR
      1.000000             1  1.000000 TR
      1.000000             1  1.000000 TR
      1.000000             1  1.000000 TR
      1.000000             1  1.000000 TR
      1.000000             1  1.000000 TR
      1.000000             1  1.000000 TR
      1.000000             1  1.000000 TR
      1.000000             1  1.000000 TR
      1.000000             1  1.000000 TR
      1.000000             1  1.000000 TR
      1.000000             1  1.000000 TR
      1.000000             1  1.000000 TR
      1.000000             1  1.000000 TR
      1.000000             1  1.000000 TR
      1.000000             1  1.000000 TR
      1.000000             1  1.000000 TR
      1.000000             1  1.000000 TR
      1.000000             1  1.000000 TR
      1.000000             1  1.000000 TR
      1.000000             1  1.000000 TR
      1.000000             1  1.000000 TR
      1.000000             1  1.000000 TR
      1.000000             1  1.000000 TR
      1.000000             1  1.000000 TR
      1.000000             1  1.000000 TR
      1.000000             1  1.000000 TR
      1.000000             1  1.000000 TR
      1.000000             1  1.000000 TR
      1.000000             1  1.000000 TR
      1.000000             1  1.000000 TR
      1.000000             1  1.000000 TR
      1.000000             1  1.000000 TR
      1.000000             1  1.000000 TR
      1.000000             1  1.000000 TR
      1.000000             1  1.000000 TR
      1.000000             1  1.000000 TR
      1.000000             1  1.000000 TR
      1.000000             1  1.000000 TR
      1.000000             1  1.000000 TR
      1.000000             1  1.000000 TR
      1.000000             1  1.000000 TR
      1.000000             1  1.000000 TR
      1.000000             1  1.000000 TR
      1.000000             1  1.000000 TR
      1.000000             1  1.000000 TR
      1.000000             1  1.000000 TR
      1.000000             1  1.000000 TR
      1.000000             1  1.000000 TR
      1.000000             1  1.000000 TR
      1.000000             1  1.000000 TR
      1.000000             1  1.000000 TR
      1.000000             1  1.000000 TR
      1.000000             1  1.000000 TR
      1.000000             1  1.000000 TR
      1.000000             1  1.000000 TR
      1.000000             1  1.000000 TR
      1.000000             1  1.000000 TR
      1.000000             1  1.000000 TR
      1.000000             1  1.000000 TR
      1.000000             1  1.000000 TR
      1.000000             1  1.000000 TR
      1.000000             1  1.000000 TR
      1.000000             1  1.000000 TR
      1.000000             1  1.000000 TR
      1.000000             1  1.000000 TR
      1.000000             1  1.000000 TR
      1.000000             1  1.000000 TR
      1.000000             1  1.000000 TR
      1.000000             1  1.000000 TR
      1.000000             1  1.000000 TR
      1.000000             1  1.000000 TR
      1.000000             1  1.000000 TR
      1.000000             1  1.000000 TR
      1.000000             1  1.000000 TR
      1.000000             1  1.000000 TR
      1.000000             1  1.000000 TR
      1.000000             1  1.000000 TR
      1.000000             1  1.000000 TR
      1.000000             1  1.000000 TR
      1.000000             1  1.000000 TR
      1.000000             1  1.000000 TR
      1.000000             1  1.000000 TR
      1.000000             1  1.000000 TR
      1.000000             1  1.000000 TR
      1.000000             1  1.000000 TR
      1.000000             1  1.000000 TR
      1.000000             1  1.000000 TR
      1.000000             1  1.000000 TR
      1.000000             1  1.000000 TR
      1.000000             1  1.000000 TR
      1.000000             1  1.000000 TR
      1.000000             1  1.000000 TR
      1.000000             1  1.000000 TR
      1.000000             1  1.000000 TR
      1.000000             1  1.000000 TR
      1.000000             1  1.000000 TR
      1.000000             1  1.000000 TR
      1.000000             1  1.000000 TR
      1.000000             1  1.000000 TR
      1.000000             1  1.000000 TR
      1.000000             1  1.000000 TR
      1.000000             1  1.000000 TR
      1.000000             1  1.000000 TR
      1.000000             1  1.000000 TR
      1.000000             1  1.000000 TR
      1.000000             1  1.000000 TR
      1.000000             1  1.000000 TR
      1.000000             1  1.000000 TR
      1.000000             1  1.000000 TR
      1.000000             1  1.000000 TR
      1.000000             1  1.000000 TR
      1.000000             1  1.000000 TR
      1.000000             1  1.000000 TR
      1.000000             1  1.000000 TR
      1.000000             1  1.000000 TR
      1.000000             1  1.000000 TR
      1.000000             1  1.000000 TR
      1.000000             1  1.000000 TR
      1.000000             1  1.000000 TR
      1.000000             1  1.000000 TR
      1.000000             1  1.000000 TR
      1.000000             1  1.000000 TR
      1.000000             1  1.000000 TR
      1.000000             1  1.000000 TR
      1.000000             1  1.000000 TR
      1.000000             1  1.000000 TR
      1.000000             1  1.000000 TR
      1.000000             1  1.000000 TR
      1.000000             1  1.000000 TR
      1.000000             1  1.000000 TR
      1.000000             1  1.000000 TR
      1.000000             1  1.000000 TR
      1.000000             1  1.000000 TR
      1.000000             1  1.000000 TR
      1.000000             1  1.000000 TR
      1.000000             1  1.000000 TR
      1.000000             1  1.000000 TR
      1.000000             1  1.000000 TR
      1.000000             1  1.000000 TR
      1.000000             1  1.000000 TR
      1.000000             1  1.000000 TR
      1.000000             1  1.000000 TR
      1.000000             1  1.000000 TR
      1.000000             1  1.000000 TR
      1.000000             1  1.000000 TR
      1.000000             1  1.000000 TR
      1.000000             1  1.000000 TR
      1.000000             1  1.000000 TR
      1.000000             1  1.000000 TR
      1.000000             1  1.000000 TR
      1.000000             1  1.000000 TR
      1.000000             1  1.000000 TR
      1.000000             1  1.000000 TR
      1.000000             1  1.000000 TR
      1.000000             1  1.000000 TR
      1.000000             1  1.000000 TR
      1.000000             1  1.000000 TR
      1.000000             1  1.000000 TR
      1.000000             1  1.000000 TR
      1.000000             1  1.000000 TR
      1.000000             1  1.000000 TR
      1.000000             1  1.000000 TR
      1.000000             1  1.000000 TR
      1.000000             1  1.000000 TR
      1.000000             1  1.000000 TR
      1.000000             1  1.000000 TR
      1.000000             1  1.000000 TR
      1.000000             1  1.000000 TR
      1.000000             1  1.000000 TR
      1.000000             1  1.000000 TR
      1.000000             1  1.000000 TR
      1.000000             1  1.000000 TR
      1.000000             1  1.000000 TR
      1.000000             1  1.000000 TR
      1.000000             1  1.000000 TR
      1.000000             1  1.000000 TR
      1.000000             1  1.000000 TR
      1.000000             1  1.000000 TR
      1.000000             1  1.000000 TR
      1.000000             1  1.000000 TR
      1.000000             1  1.000000 TR
      1.000000             1  1.000000 TR
      1.000000             1  1.000000 TR
      1.000000             1  1.000000 TR
      1.000000             1  1.000000 TR
      1.000000             1  1.000000 TR
      1.000000             1  1.000000 TR
      1.000000             1  1.000000 TR
      1.000000             1  1.000000 TR
      1.000000             1  1.000000 TR
      1.000000             1  1.000000 TR
      1.000000             1  1.000000 TR
      1.000000             1  1.000000 TR
      1.000000             1  1.000000 TR
      1.000000             1  1.000000 TR
      1.000000             1  1.000000 TR
      1.000000             1  1.000000 TR
      1.000000             1  1.000000 TR
      1.000000             1  1.000000 TR
      1.000000             1  1.000000 TR
      1.000000             1  1.000000 TR
      1.000000             1  1.000000 TR
      1.000000             1  1.000000 TR
      1.000000             1  1.000000 TR
      1.000000             1  1.000000 TR
      1.000000             1  1.000000 TR
      1.000000             1  1.000000 TR
      1.000000             1  1.000000 TR
      1.000000             1  1.000000 TR
      1.000000             1  1.000000 TR
      1.000000             1  1.000000 TR
      1.000000             1  1.000000 TR
      1.000000             1  1.000000 TR
      1.000000             1  1.000000 TR
      1.000000             1  1.000000 TR
      1.000000             1  1.000000 TR
      1.000000             1  1.000000 TR
      1.000000             1  1.000000 TR
      1.000000             1  1.000000 TR
      1.000000             1  1.000000 TR
      1.000000             1  1.000000 TR
      1.000000             1  1.000000 TR
      1.000000             1  1.000000 TR
      1.000000             1  1.000000 TR
      1.000000             1  1.000000 TR
      1.000000             1  1.000000 TR
      1.000000             1  1.000000 TR
      1.000000             1  1.000000 TR
      1.000000             1  1.000000 TR
      1.000000             1  1.000000 TR
      1.000000             1  1.000000 TR
      1.000000             1  1.000000 TR
      1.000000             1  1.000000 TR
      1.000000             1  1.000000 TR
      1.000000             1  1.000000 TR
      1.000000             1  1.000000 TR
      1.000000             1  1.000000 TR
      1.000000             1  1.000000 TR
      1.000000             1  1.000000 TR
      1.000000             1  1.000000 TR
      1.000000             1  1.000000 TR
      1.000000             1  1.000000 TR
      1.000000             1  1.000000 TR
      1.000000             1  1.000000 TR
      1.000000             1  1.000000 TR
      1.000000             1  1.000000 TR
      1.000000             1  1.000000 TR
      1.000000             1  1.000000 TR
      1.000000             1  1.000000 TR
      1.000000             1  1.000000 TR
      1.000000             1  1.000000 TR
      1.000000             1  1.000000 TR
      1.000000             1  1.000000 TR
      1.000000             1  1.000000 TR
      1.000000             1  1.000000 TR
      1.000000             1  1.000000 TR
      1.000000             1  1.000000 TR
      1.000000             1  1.000000 TR
      1.000000             1  1.000000 TR
      1.000000             1  1.000000 TR
      1.000000             1  1.000000 TR
      1.000000             1  1.000000 TR
      1.000000             1  1.000000 TR
      1.000000             1  1.000000 TR
      1.000000             1  1.000000 TR
      1.000000             1  1.000000 TR
      1.000000             1  1.000000 TR
      1.000000             1  1.000000 TR
      1.000000             1  1.000000 TR
      1.000000             1  1.000000 TR
      1.000000             1  1.000000 TR
      1.000000             1  1.000000 TR
      1.000000             1  1.000000 TR
      1.000000             1  1.000000 TR
      1.000000             1  1.000000 TR
      1.000000             1  1.000000 TR
      1.000000             1  1.000000 TR