BEGIN Options
END Options

BEGIN Timing
  TDIS6  biscayne.tdis
END Timing

BEGIN Models
  GWF6  biscayne.nam  Biscayne
END Models

BEGIN Exchanges
END Exchanges

BEGIN SOLUTIONGROUP 1
  MXITER  1
  IMS6  biscayne.ims  Biscayne
END SOLUTIONGROUP
