
BEGIN OPTIONS
  FIXED_CELL
  SAVE_FLOWS
  READASARRAYS
END OPTIONS

BEGIN PERIOD 1
  SURFACE
    OPEN/CLOSE biscayne.disv.top.dat FACTOR  1.0  IPRN -1
  DEPTH
    CONSTANT 1.0
  RATE
    CONSTANT 0.00099400000181
END PERIOD

BEGIN PERIOD 2
  RATE
    CONSTANT 0.00158999999985
END PERIOD

BEGIN PERIOD 3
  RATE
    CONSTANT 0.000556999992114
END PERIOD

BEGIN PERIOD 4
  RATE
    CONSTANT 0.00158999999985
END PERIOD

BEGIN PERIOD 5
  RATE
    CONSTANT 0.00170999998227
END PERIOD

BEGIN PERIOD 6
  RATE
    CONSTANT 0.00164000003133
END PERIOD

BEGIN PERIOD 7
  RATE
    CONSTANT 0.00124999997206
END PERIOD

BEGIN PERIOD 8
  RATE
    CONSTANT 0.000933000002988
END PERIOD

BEGIN PERIOD 9
  RATE
    CONSTANT 0.00132000003941
END PERIOD

BEGIN PERIOD 10
  RATE
    CONSTANT 0.00150000001304
END PERIOD

BEGIN PERIOD 11
  RATE
    CONSTANT 0.00185000000056
END PERIOD

BEGIN PERIOD 12
  RATE
    CONSTANT 0.00130000000354
END PERIOD

BEGIN PERIOD 13
  RATE
    CONSTANT 0.001200000057
END PERIOD

BEGIN PERIOD 14
  RATE
    CONSTANT 0.00170000002254
END PERIOD

BEGIN PERIOD 15
  RATE
    CONSTANT 0.00135000003502
END PERIOD

BEGIN PERIOD 16
  RATE
    CONSTANT 0.00132000003941
END PERIOD

BEGIN PERIOD 17
  RATE
    CONSTANT 0.00149000005331
END PERIOD

BEGIN PERIOD 18
  RATE
    CONSTANT 0.00165999995079
END PERIOD

BEGIN PERIOD 19
  RATE
    CONSTANT 0.00130999996327
END PERIOD

BEGIN PERIOD 20
  RATE
    CONSTANT 0.00182999996468
END PERIOD

BEGIN PERIOD 21
  RATE
    CONSTANT 0.00197999994271
END PERIOD

BEGIN PERIOD 22
  RATE
    CONSTANT 0.00149000005331
END PERIOD

BEGIN PERIOD 23
  RATE
    CONSTANT 0.00200000009499
END PERIOD

BEGIN PERIOD 24
  RATE
    CONSTANT 0.00248000002466
END PERIOD

BEGIN PERIOD 25
  RATE
    CONSTANT 0.00153000000864
END PERIOD

BEGIN PERIOD 26
  RATE
    CONSTANT 0.00209999992512
END PERIOD

BEGIN PERIOD 27
  RATE
    CONSTANT 0.00264000007883
END PERIOD

BEGIN PERIOD 28
  RATE
    CONSTANT 0.00144999998156
END PERIOD

BEGIN PERIOD 29
  RATE
    CONSTANT 0.00252000009641
END PERIOD

BEGIN PERIOD 30
  RATE
    CONSTANT 0.00230999989435
END PERIOD

BEGIN PERIOD 31
  RATE
    CONSTANT 0.0027499999851
END PERIOD

BEGIN PERIOD 32
  RATE
    CONSTANT 0.00236000004224
END PERIOD

BEGIN PERIOD 33
  RATE
    CONSTANT 0.00167999998666
END PERIOD

BEGIN PERIOD 34
  RATE
    CONSTANT 0.00106999999844
END PERIOD

BEGIN PERIOD 35
  RATE
    CONSTANT 0.00106000003871
END PERIOD

BEGIN PERIOD 36
  RATE
    CONSTANT 0.0010300000431
END PERIOD

BEGIN PERIOD 37
  RATE
    CONSTANT 0.00141000002623
END PERIOD

BEGIN PERIOD 38
  RATE
    CONSTANT 0.00141000002623
END PERIOD

BEGIN PERIOD 39
  RATE
    CONSTANT 0.00236999988556
END PERIOD

BEGIN PERIOD 40
  RATE
    CONSTANT 0.00286999996752
END PERIOD

BEGIN PERIOD 41
  RATE
    CONSTANT 0.00276999990456
END PERIOD

BEGIN PERIOD 42
  RATE
    CONSTANT 0.00254000001587
END PERIOD

BEGIN PERIOD 43
  RATE
    CONSTANT 0.00257000001147
END PERIOD

BEGIN PERIOD 44
  RATE
    CONSTANT 0.00196000002325
END PERIOD

BEGIN PERIOD 45
  RATE
    CONSTANT 0.00218999991193
END PERIOD

BEGIN PERIOD 46
  RATE
    CONSTANT 0.00208000000566
END PERIOD

BEGIN PERIOD 47
  RATE
    CONSTANT 0.00144999998156
END PERIOD

BEGIN PERIOD 48
  RATE
    CONSTANT 0.00156000000425
END PERIOD

BEGIN PERIOD 49
  RATE
    CONSTANT 0.00190999999177
END PERIOD

BEGIN PERIOD 50
  RATE
    CONSTANT 0.0020600000862
END PERIOD

BEGIN PERIOD 51
  RATE
    CONSTANT 0.00185999996029
END PERIOD

BEGIN PERIOD 52
  RATE
    CONSTANT 0.00228999997489
END PERIOD

BEGIN PERIOD 53
  RATE
    CONSTANT 0.00276999990456
END PERIOD

BEGIN PERIOD 54
  RATE
    CONSTANT 0.00310000008903
END PERIOD

BEGIN PERIOD 55
  RATE
    CONSTANT 0.00313999992795
END PERIOD

BEGIN PERIOD 56
  RATE
    CONSTANT 0.00289999996312
END PERIOD

BEGIN PERIOD 57
  RATE
    CONSTANT 0.00264000007883
END PERIOD

BEGIN PERIOD 58
  RATE
    CONSTANT 0.00307000009343
END PERIOD

BEGIN PERIOD 59
  RATE
    CONSTANT 0.00298999994993
END PERIOD

BEGIN PERIOD 60
  RATE
    CONSTANT 0.00319999991916
END PERIOD

BEGIN PERIOD 61
  RATE
    CONSTANT 0.00288000004366
END PERIOD

BEGIN PERIOD 62
  RATE
    CONSTANT 0.00136999995448
END PERIOD

BEGIN PERIOD 63
  RATE
    CONSTANT 0.000958000018727
END PERIOD

BEGIN PERIOD 64
  RATE
    CONSTANT 0.00224999990314
END PERIOD

BEGIN PERIOD 65
  RATE
    CONSTANT 0.00230000005104
END PERIOD

BEGIN PERIOD 66
  RATE
    CONSTANT 0.00283999997191
END PERIOD

BEGIN PERIOD 67
  RATE
    CONSTANT 0.0027499999851
END PERIOD

BEGIN PERIOD 68
  RATE
    CONSTANT 0.00187000003643
END PERIOD

BEGIN PERIOD 69
  RATE
    CONSTANT 0.00156999996398
END PERIOD

BEGIN PERIOD 70
  RATE
    CONSTANT 0.000104999999166
END PERIOD

BEGIN PERIOD 71
  RATE
    CONSTANT 0.000475000008009
END PERIOD

BEGIN PERIOD 72
  RATE
    CONSTANT 0.00221000006422
END PERIOD

BEGIN PERIOD 73
  RATE
    CONSTANT 0.00362999993376
END PERIOD

BEGIN PERIOD 74
  RATE
    CONSTANT 0.00292999995872
END PERIOD

BEGIN PERIOD 75
  RATE
    CONSTANT 0.00306000001729
END PERIOD

BEGIN PERIOD 76
  RATE
    CONSTANT 0.00337999989279
END PERIOD

BEGIN PERIOD 77
  RATE
    CONSTANT 0.00285999989137
END PERIOD

BEGIN PERIOD 78
  RATE
    CONSTANT 0.00292999995872
END PERIOD

BEGIN PERIOD 79
  RATE
    CONSTANT 0.00230000005104
END PERIOD

BEGIN PERIOD 80
  RATE
    CONSTANT 0.0027499999851
END PERIOD

BEGIN PERIOD 81
  RATE
    CONSTANT 0.00212999992073
END PERIOD

BEGIN PERIOD 82
  RATE
    CONSTANT 0.0027499999851
END PERIOD

BEGIN PERIOD 83
  RATE
    CONSTANT 0.00288000004366
END PERIOD

BEGIN PERIOD 84
  RATE
    CONSTANT 0.00276000006124
END PERIOD

BEGIN PERIOD 85
  RATE
    CONSTANT 0.00255999993533
END PERIOD

BEGIN PERIOD 86
  RATE
    CONSTANT 0.00267999991775
END PERIOD

BEGIN PERIOD 87
  RATE
    CONSTANT 0.00260000000708
END PERIOD

BEGIN PERIOD 88
  RATE
    CONSTANT 0.00257000001147
END PERIOD

BEGIN PERIOD 89
  RATE
    CONSTANT 0.00352000002749
END PERIOD

BEGIN PERIOD 90
  RATE
    CONSTANT 0.00378999998793
END PERIOD

BEGIN PERIOD 91
  RATE
    CONSTANT 0.00417000008747
END PERIOD

BEGIN PERIOD 92
  RATE
    CONSTANT 0.00294000003487
END PERIOD

BEGIN PERIOD 93
  RATE
    CONSTANT 0.00329999998212
END PERIOD

BEGIN PERIOD 94
  RATE
    CONSTANT 0.00288999988697
END PERIOD

BEGIN PERIOD 95
  RATE
    CONSTANT 0.00218999991193
END PERIOD

BEGIN PERIOD 96
  RATE
    CONSTANT 0.00273999990895
END PERIOD

BEGIN PERIOD 97
  RATE
    CONSTANT 0.00258999993093
END PERIOD

BEGIN PERIOD 98
  RATE
    CONSTANT 0.00227000005543
END PERIOD

BEGIN PERIOD 99
  RATE
    CONSTANT 0.000957000011113
END PERIOD

BEGIN PERIOD 100
  RATE
    CONSTANT 0.000176000001375
END PERIOD

