BEGIN OPTIONS
END OPTIONS

BEGIN GRIDDATA
  ICONVERT
    CONSTANT 1
  SS
    CONSTANT 1.e-5
  SY
    CONSTANT 0.2    
END GRIDDATA
