begin options
  print_option all #
  no_ptc
end options

begin nonlinear
  outer_dvclose   1.0e-05
  outer_maximum  500
	under_relaxation dbd
	under_relaxation_theta 0.70
	under_relaxation_kappa 0.08
	under_relaxation_gamma 0.05
	under_relaxation_momentum 0.
	backtracking_number 20
	backtracking_tolerance 2.
	backtracking_reduction_factor 0.2
	backtracking_residual_limit 5.000000e-04
end nonlinear

begin linear
  inner_maximum  100
  inner_dvclose   1.e-05
  inner_rclose   1e6
  linear_acceleration  bicgstab
  number_orthogonalizations 2
  relaxation_factor 0.97
  #preconditioner_levels 5
  #preconditioner_drop_tolerance 1.e-5
end linear

