
BEGIN OPTIONS
  FIXED_CELL
  SAVE_FLOWS
  READASARRAYS
END OPTIONS

BEGIN PERIOD 1
  RECHARGE
    CONSTANT 0.00234950007871
END PERIOD

BEGIN PERIOD 2
  RECHARGE
    CONSTANT 3.17500016536e-05
END PERIOD

BEGIN PERIOD 3
  RECHARGE
    CONSTANT 0.00406400021166
END PERIOD

BEGIN PERIOD 4
  RECHARGE
    CONSTANT 0.0175895001739
END PERIOD

BEGIN PERIOD 5
  RECHARGE
    CONSTANT 0.0
END PERIOD

BEGIN PERIOD 6
  RECHARGE
    CONSTANT 0.0
END PERIOD

BEGIN PERIOD 7
  RECHARGE
    CONSTANT 0.00844550039619
END PERIOD

BEGIN PERIOD 8
  RECHARGE
    CONSTANT 0.00133350002579
END PERIOD

BEGIN PERIOD 9
  RECHARGE
    CONSTANT 0.0
END PERIOD

BEGIN PERIOD 10
  RECHARGE
    CONSTANT 0.0
END PERIOD

BEGIN PERIOD 11
  RECHARGE
    CONSTANT 0.0
END PERIOD

BEGIN PERIOD 12
  RECHARGE
    CONSTANT 0.0
END PERIOD

BEGIN PERIOD 13
  RECHARGE
    CONSTANT 3.17500016536e-05
END PERIOD

BEGIN PERIOD 14
  RECHARGE
    CONSTANT 0.0
END PERIOD

BEGIN PERIOD 15
  RECHARGE
    CONSTANT 0.0
END PERIOD

BEGIN PERIOD 16
  RECHARGE
    CONSTANT 0.0
END PERIOD

BEGIN PERIOD 17
  RECHARGE
    CONSTANT 3.17500016536e-05
END PERIOD

BEGIN PERIOD 18
  RECHARGE
    CONSTANT 0.0
END PERIOD

BEGIN PERIOD 19
  RECHARGE
    CONSTANT 0.00136524997652
END PERIOD

BEGIN PERIOD 20
  RECHARGE
    CONSTANT 0.00177800003439
END PERIOD

BEGIN PERIOD 21
  RECHARGE
    CONSTANT 0.0
END PERIOD

BEGIN PERIOD 22
  RECHARGE
    CONSTANT 0.0
END PERIOD

BEGIN PERIOD 23
  RECHARGE
    CONSTANT 0.0
END PERIOD

BEGIN PERIOD 24
  RECHARGE
    CONSTANT 0.0
END PERIOD

BEGIN PERIOD 25
  RECHARGE
    CONSTANT 0.000380999990739
END PERIOD

BEGIN PERIOD 26
  RECHARGE
    CONSTANT 0.00473074987531
END PERIOD

BEGIN PERIOD 27
  RECHARGE
    CONSTANT 9.52499976847e-05
END PERIOD

BEGIN PERIOD 28
  RECHARGE
    CONSTANT 0.0
END PERIOD

BEGIN PERIOD 29
  RECHARGE
    CONSTANT 0.000465666991659
END PERIOD

BEGIN PERIOD 30
  RECHARGE
    CONSTANT 0.00503766722977
END PERIOD

BEGIN PERIOD 31
  RECHARGE
    CONSTANT 0.0
END PERIOD

BEGIN PERIOD 32
  RECHARGE
    CONSTANT 0.0
END PERIOD

BEGIN PERIOD 33
  RECHARGE
    CONSTANT 0.0
END PERIOD

BEGIN PERIOD 34
  RECHARGE
    CONSTANT 0.00619124993682
END PERIOD

BEGIN PERIOD 35
  RECHARGE
    CONSTANT 0.000603249995038
END PERIOD

BEGIN PERIOD 36
  RECHARGE
    CONSTANT 0.0
END PERIOD

BEGIN PERIOD 37
  RECHARGE
    CONSTANT 0.0
END PERIOD

BEGIN PERIOD 38
  RECHARGE
    CONSTANT 0.000190499995369
END PERIOD

BEGIN PERIOD 39
  RECHARGE
    CONSTANT 0.0
END PERIOD

BEGIN PERIOD 40
  RECHARGE
    CONSTANT 0.0
END PERIOD

BEGIN PERIOD 41
  RECHARGE
    CONSTANT 0.0
END PERIOD

BEGIN PERIOD 42
  RECHARGE
    CONSTANT 0.0
END PERIOD

BEGIN PERIOD 43
  RECHARGE
    CONSTANT 0.0
END PERIOD

BEGIN PERIOD 44
  RECHARGE
    CONSTANT 0.0
END PERIOD

BEGIN PERIOD 45
  RECHARGE
    CONSTANT 0.0
END PERIOD

BEGIN PERIOD 46
  RECHARGE
    CONSTANT 0.0
END PERIOD

BEGIN PERIOD 47
  RECHARGE
    CONSTANT 0.000412749999668
END PERIOD

BEGIN PERIOD 48
  RECHARGE
    CONSTANT 0.00273049995303
END PERIOD

BEGIN PERIOD 49
  RECHARGE
    CONSTANT 0.0
END PERIOD

BEGIN PERIOD 50
  RECHARGE
    CONSTANT 0.0
END PERIOD

BEGIN PERIOD 51
  RECHARGE
    CONSTANT 0.0110807502642
END PERIOD

BEGIN PERIOD 52
  RECHARGE
    CONSTANT 0.00136524997652
END PERIOD

BEGIN PERIOD 53
  RECHARGE
    CONSTANT 3.17500016536e-05
END PERIOD

BEGIN PERIOD 54
  RECHARGE
    CONSTANT 0.0
END PERIOD

BEGIN PERIOD 55
  RECHARGE
    CONSTANT 0.0
END PERIOD

BEGIN PERIOD 56
  RECHARGE
    CONSTANT 0.0
END PERIOD

BEGIN PERIOD 57
  RECHARGE
    CONSTANT 0.0
END PERIOD

BEGIN PERIOD 58
  RECHARGE
    CONSTANT 0.0
END PERIOD

BEGIN PERIOD 59
  RECHARGE
    CONSTANT 0.0
END PERIOD

BEGIN PERIOD 60
  RECHARGE
    CONSTANT 0.0
END PERIOD

BEGIN PERIOD 61
  RECHARGE
    CONSTANT 0.0
END PERIOD

BEGIN PERIOD 62
  RECHARGE
    CONSTANT 0.00165099999867
END PERIOD

BEGIN PERIOD 63
  RECHARGE
    CONSTANT 0.00666749989614
END PERIOD

BEGIN PERIOD 64
  RECHARGE
    CONSTANT 0.000127000006614
END PERIOD

BEGIN PERIOD 65
  RECHARGE
    CONSTANT 0.0
END PERIOD

BEGIN PERIOD 66
  RECHARGE
    CONSTANT 0.0
END PERIOD

BEGIN PERIOD 67
  RECHARGE
    CONSTANT 0.0
END PERIOD

BEGIN PERIOD 68
  RECHARGE
    CONSTANT 0.000476249988424
END PERIOD

BEGIN PERIOD 69
  RECHARGE
    CONSTANT 0.0
END PERIOD

BEGIN PERIOD 70
  RECHARGE
    CONSTANT 0.00387350004166
END PERIOD

BEGIN PERIOD 71
  RECHARGE
    CONSTANT 0.0177482496947
END PERIOD

BEGIN PERIOD 72
  RECHARGE
    CONSTANT 0.0100874286145
END PERIOD

BEGIN PERIOD 73
  RECHARGE
    CONSTANT 0.0
END PERIOD

BEGIN PERIOD 74
  RECHARGE
    CONSTANT 0.0
END PERIOD

BEGIN PERIOD 75
  RECHARGE
    CONSTANT 0.0
END PERIOD

BEGIN PERIOD 76
  RECHARGE
    CONSTANT 0.0
END PERIOD

BEGIN PERIOD 77
  RECHARGE
    CONSTANT 0.0
END PERIOD

BEGIN PERIOD 78
  RECHARGE
    CONSTANT 0.0
END PERIOD

BEGIN PERIOD 79
  RECHARGE
    CONSTANT 3.17500016536e-05
END PERIOD

BEGIN PERIOD 80
  RECHARGE
    CONSTANT 0.000635000003967
END PERIOD

BEGIN PERIOD 81
  RECHARGE
    CONSTANT 0.0
END PERIOD

BEGIN PERIOD 82
  RECHARGE
    CONSTANT 0.0
END PERIOD

BEGIN PERIOD 83
  RECHARGE
    CONSTANT 0.0
END PERIOD

BEGIN PERIOD 84
  RECHARGE
    CONSTANT 0.0
END PERIOD

BEGIN PERIOD 85
  RECHARGE
    CONSTANT 0.0
END PERIOD

BEGIN PERIOD 86
  RECHARGE
    CONSTANT 0.0
END PERIOD

BEGIN PERIOD 87
  RECHARGE
    CONSTANT 0.0
END PERIOD

BEGIN PERIOD 88
  RECHARGE
    CONSTANT 0.00336549989879
END PERIOD

BEGIN PERIOD 89
  RECHARGE
    CONSTANT 4.2333300371e-05
END PERIOD

BEGIN PERIOD 90
  RECHARGE
    CONSTANT 0.000592667027377
END PERIOD

BEGIN PERIOD 91
  RECHARGE
    CONSTANT 0.00321733299643
END PERIOD

BEGIN PERIOD 92
  RECHARGE
    CONSTANT 0.000952499976847
END PERIOD

BEGIN PERIOD 93
  RECHARGE
    CONSTANT 0.0
END PERIOD

BEGIN PERIOD 94
  RECHARGE
    CONSTANT 0.0
END PERIOD

BEGIN PERIOD 95
  RECHARGE
    CONSTANT 0.0
END PERIOD

BEGIN PERIOD 96
  RECHARGE
    CONSTANT 0.0
END PERIOD

BEGIN PERIOD 97
  RECHARGE
    CONSTANT 0.0
END PERIOD

BEGIN PERIOD 98
  RECHARGE
    CONSTANT 0.000943429011386
END PERIOD

BEGIN PERIOD 99
  RECHARGE
    CONSTANT 0.0140062859282
END PERIOD

BEGIN PERIOD 100
  RECHARGE
    CONSTANT 0.0379548557103
END PERIOD

