BEGIN Options
  PRINT_OPTION ALL #
  DEV_NO_PTC
END Options

BEGIN Nonlinear
  OUTER_HCLOSE   1.0E-05
  OUTER_MAXIMUM  500
	under_relaxation dbd
	under_relaxation_theta 0.70
	under_relaxation_kappa 0.08
	under_relaxation_gamma 0.05
	under_relaxation_momentum 0.
	BACKTRACKING_NUMBER 20
	BACKTRACKING_TOLERANCE 2.
	BACKTRACKING_REDUCTION_FACTOR 0.2
	BACKTRACKING_RESIDUAL_LIMIT 5.000000E-04
END Nonlinear

BEGIN LINEAR
  INNER_MAXIMUM  100
  INNER_HCLOSE   1.E-05
  INNER_RCLOSE   1e6
  LINEAR_ACCELERATION  bicgstab
  NUMBER_ORTHOGONALIZATIONS 2
  RELAXATION_FACTOR 0.97
  #PRECONDITIONER_LEVELS 5
  #PRECONDITIONER_DROP_TOLERANCE 1.e-5
END LINEAR

