BEGIN OPTIONS
END OPTIONS

BEGIN GRIDDATA
  STRT
    OPEN/CLOSE biscayne.ic.strt.dat FACTOR  1.0  IPRN -1
END GRIDDATA
