BEGIN OPTIONS
END OPTIONS

BEGIN PACKAGES
  DISV6 biscayne.disv
  IC6   biscayne.ic
  NPF6  biscayne.npf
  CHD6  biscayne.chd
  STO6  biscayne.sto
  RIV6  biscayne.riv
  WEL6  biscayne.wel
  EVT6  biscayne.evt
  RCH6  biscayne.rch
  OC6   biscayne.oc
END PACKAGES

