# File generated by Flopy version 3.3.7 on 04/18/2023 at 17:35:08.
BEGIN Options
END Options

BEGIN TIMING
  TDIS6  secp_mf6.tdis
END TIMING

BEGIN MODELS
  gwf6  secp_mf6.nam  secp_mf6
END MODELS

BEGIN EXCHANGES
END EXCHANGES

BEGIN SOLUTIONGROUP  1
  MXITER  1
  ims6  secp_mf6.ims  secp_mf6
END SOLUTIONGROUP  1

