# File generated by Flopy version 3.3.7 on 04/18/2023 at 17:35:14.
BEGIN Options
  AUXILIARY  iface  condfact  cellgrp
  PRINT_INPUT
  PRINT_FLOWS
END Options

BEGIN Dimensions
  MAXBOUND  1247
END Dimensions

BEGIN PERIOD  1
  1 36 144     225.50000000    5778.11670000     225.39999000       6.00000000    2889.05840000       1.00000000
  1 37 144     211.70001000    8611.35680000     211.60001000       6.00000000    4305.67840000     112.00000000
  1 37 144     211.70001000   10070.89800000     211.60001000       6.00000000    5035.44900000     222.00000000
  1 36 144     225.50000000      91.83294100     225.39999000       6.00000000      45.91647100     222.00000000
  1 36 144     225.50000000    1399.21850000     225.39999000       6.00000000     699.60926000     332.00000000
  1 34 123      72.40000200  2.48529910E+05      72.30000300       6.00000000    6213.24790000     440.00000000
  1 34 123      72.40000200   24853.31300000      72.30000300       6.00000000     621.33281000     541.00000000
  1 33 123      87.69999700  1.34693310E+05      87.59999800       6.00000000    3367.33270000     541.00000000
  1 33 122     118.00000000   24760.06900000     117.90000000       6.00000000     619.00173000     541.00000000
  1 33 122     118.00000000  4.69313930E+05     117.90000000       6.00000000   11732.84800000     632.00000000
  1 32 122     184.50000000    7580.21740000     184.39999000       6.00000000     189.50543000     632.00000000
  1 32 122     184.50000000  1.20875340E+05     184.39999000       6.00000000    3021.88350000     646.00000000
  1 32 122     184.50000000    1098.56350000     184.39999000       6.00000000      27.46408900     657.00000000
  1 32 121     184.50000000  4.20227430E+05     184.39999000       6.00000000   10505.68600000     657.00000000
  1 31 121     119.70000000    7179.02960000     119.60000000       6.00000000     179.47574000     657.00000000
  1 31 121     119.70000000  4.73576440E+05     119.60000000       6.00000000   11839.41100000       2.00000000
  1 30 121     111.20000000   11436.90000000     111.10000000       6.00000000     285.92250000       2.00000000
  1 30 121     111.20000000  2.63020100E+05     111.10000000       6.00000000    6575.50250000      13.00000000
  1 30 120     182.30000000  1.53283580E+05     182.20000000       6.00000000    3832.08950000      13.00000000
  1 29 120     156.50000000    9750.77790000     156.39999000       6.00000000     243.76945000      13.00000000
  1 29 120     156.50000000  4.23088300E+05     156.39999000       6.00000000   10577.20700000      24.00000000
  1 28 120     173.00000000   14110.79500000     172.89999000       6.00000000     352.76987000      24.00000000
  1 28 120     173.00000000  4.57717750E+05     172.89999000       6.00000000   11442.94400000      35.00000000
  1 27 120     173.10001000    2554.53110000     173.00000000       6.00000000      63.86327700      35.00000000
  1 34 123      72.40000200   90619.65500000      72.30000300       6.00000000    2265.49140000      46.00000000
  1 27 120     173.10001000  2.12541880E+05     173.00000000       6.00000000    5313.54690000      57.00000000
  1 34 123      72.40000200  1.33556800E+05      72.30000300       6.00000000    3338.92010000      68.00000000
  1 33 123      87.69999700    6425.34830000      87.59999800       6.00000000     160.63371000      68.00000000
  1 34 124      74.40000200    6804.91020000      74.30000300       6.00000000     170.12276000      79.00000000
  1 34 123      72.40000200  1.72464940E+05      72.30000300       6.00000000    4311.62360000      79.00000000
  1 36 123      56.50000000  1.17677300E+05      56.40000200       6.00000000    2941.93260000      90.00000000
  1 36 123      56.50000000   18821.44900000      56.40000200       6.00000000     470.53622000     101.00000000
  1 36 124      76.69999700  1.79502480E+05      76.59999800       6.00000000    4487.56190000     101.00000000
  1 36 124      76.69999700    5010.71740000      76.59999800       6.00000000     125.26794000     113.00000000
  1 35 124      66.19999700  4.19095600E+05      66.09999800       6.00000000   10477.39000000     113.00000000
  1 36 124      76.69999700  3.02437750E+05      76.59999800       6.00000000    7560.94370000     124.00000000
  1 35 124      66.19999700  2.12268520E+05      66.09999800       6.00000000    5306.71290000     135.00000000
  1 35 124      66.19999700    4848.40220000      66.09999800       6.00000000     121.21006000     146.00000000
  1 34 124      74.40000200  1.23610370E+05      74.30000300       6.00000000    3090.25930000     146.00000000
  1 33 123      87.69999700   45010.12200000      87.59999800       6.00000000    1125.25310000     157.00000000
  1 38 102     185.40001000  2.49556270E+05     185.30000000       6.00000000    6238.90670000     167.00000000
  1 31 168     254.40001000       0.07313838     254.30000000       6.00000000       0.02216315     178.00000000
  1 31 167     258.50000000    3822.78300000     258.39999000       6.00000000    1158.41910000     178.00000000
  1 32 168     255.10001000       0.51779437     255.00000000       6.00000000       0.15690738     189.00000000
  1 31 168     254.40001000    5459.83370000     254.30000000       6.00000000    1654.49510000     189.00000000
  1 33 168     253.60001000       0.35151487     253.50000000       6.00000000       0.10651966     200.00000000
  1 32 168     255.10001000   42585.99600000     255.00000000       6.00000000   12904.84700000     200.00000000
  1 33 168     253.60001000   13555.16600000     253.50000000       6.00000000    4107.62610000     211.00000000
  1 34 169     240.20001000       0.14011116     240.10001000       6.00000000       0.04245793     223.00000000
  1 33 169     246.50000000   26459.57300000     246.39999000       6.00000000    8018.05230000     223.00000000
  1 33 168     253.60001000       0.04003433     253.50000000       6.00000000       0.01213161     223.00000000
  1 34 169     240.20001000   16378.94600000     240.10001000       6.00000000    4963.31690000     234.00000000
  1 35 168     237.90001000       0.24072318     237.80000000       6.00000000       0.07294642     245.00000000
  1 34 168     248.40001000   21698.19800000     248.30000000       6.00000000    6575.21140000     245.00000000
  1 34 169     240.20001000       0.37439531     240.10001000       6.00000000       0.11345312     245.00000000
  1 36 168     193.50000000       0.28200148     193.39999000       6.00000000       0.08545499     256.00000000
  1 35 168     237.90001000   35485.28800000     237.80000000       6.00000000   10753.11800000     256.00000000
  1 37 168     174.20001000       0.24562402     174.10001000       6.00000000       0.07443152     267.00000000
  1 36 168     193.50000000   35700.95300000     193.39999000       6.00000000   10818.47100000     267.00000000
  1 37 169     198.40001000       1.47371130     198.30000000       6.00000000       0.44657917     278.00000000
  1 37 168     174.20001000    6055.23930000     174.10001000       6.00000000    1834.92100000     278.00000000
  1 39 170     187.10001000    4385.50520000     187.00000000       6.00000000    1328.94100000     289.00000000
  1 39 171     136.40001000   35839.75500000     136.30000000       6.00000000   10860.53200000     299.00000000
  1 39 170     187.10001000       0.19922459     187.00000000       6.00000000       0.06037109     299.00000000
  1 39 170     187.10001000       0.42734300     187.00000000       6.00000000       0.12949788     310.00000000
  1 38 170     188.10001000   39475.13600000     188.00000000       6.00000000   11962.16300000     310.00000000
  1 38 169     139.30000000       0.10963909     139.20000000       6.00000000       0.03322397     310.00000000
  1 37 169     198.40001000   29996.91100000     198.30000000       6.00000000    9089.97290000     321.00000000
  1 38 169     139.30000000   34959.48500000     139.20000000       6.00000000   10593.78300000     333.00000000
  1 37 169     198.40001000       0.02095421     198.30000000       6.00000000       0.00634976     333.00000000
  1 27 154     236.20001000  3.49240290E+05     236.10001000       6.00000000    8731.00720000     344.00000000
  1 27 155     236.20001000       4.98189950     236.10001000       6.00000000       0.12454749     344.00000000
  1 26 154     240.80000000  2.16409280E+05     240.70000000       6.00000000    5410.23210000     355.00000000
  1 27 154     236.20001000       1.04471070     236.10001000       6.00000000       0.02611777     355.00000000
  1 29 157     236.20001000  3.96508810E+05     236.10001000       6.00000000    9912.72030000     366.00000000
  1 27 155     236.20001000  1.51366510E+05     236.10001000       6.00000000    3784.16290000     375.00000000
  1 28 155     236.20001000       2.60436260     236.10001000       6.00000000       0.06510907     375.00000000
  1 28 156     236.20001000   48729.29600000     236.10001000       6.00000000    1218.23240000     386.00000000
  1 29 156     236.20001000       0.10437373     236.10001000       6.00000000       0.00260934     386.00000000
  1 28 155     236.20001000  7.02986280E+05     236.10001000       6.00000000   17574.65700000     396.00000000
  1 28 156     236.20001000       6.19367560     236.10001000       6.00000000       0.15484189     396.00000000
  1 29 156     236.20001000   56639.56600000     236.10001000       6.00000000    1415.98910000     407.00000000
  1 29 156     236.20001000  4.59408620E+05     236.10001000       6.00000000   11485.21600000     418.00000000
  1 29 157     236.20001000       1.79731710     236.10001000       6.00000000       0.04493293     418.00000000
  1 29 156     236.20001000       3.07716420     236.10001000       6.00000000       0.07692910     429.00000000
  1 29 155     236.20001000   81569.48300000     236.10001000       6.00000000    2039.23710000     429.00000000
  1 29 156     236.20001000      11.02986800     236.10001000       6.00000000       0.27574671     429.00000000
  1 29 157     236.20001000       2.32632780     236.10001000       6.00000000       0.05815820     441.00000000
  1 30 157     232.80000000  5.66751500E+05     232.70000000       6.00000000   14168.78800000     441.00000000
  1 31 157     228.90001000       4.70190740     228.80000000       6.00000000       0.11754769     441.00000000
  1 31 157     228.90001000  2.82726370E+05     228.80000000       6.00000000    7068.15920000     450.00000000
  1 31 158     230.50000000      12.39065600     230.39999000       6.00000000       0.30976639     450.00000000
  1 31 158     230.50000000  1.80677850E+05     230.39999000       6.00000000    4516.94620000     461.00000000
  1 31 158     230.50000000       3.29973560     230.39999000       6.00000000       0.08249339     472.00000000
  1 32 158     227.20001000  4.37877630E+05     227.10001000       6.00000000   10946.94100000     472.00000000
  1 33 158     223.50000000       2.22100860     223.39999000       6.00000000       0.05552521     472.00000000
  1 33 158     223.50000000      10.22847500     223.39999000       6.00000000       0.25571187     481.00000000
  1 33 157     218.40001000   22875.50100000     218.30000000       6.00000000     571.88754000     481.00000000
  1 32 157     224.30000000       0.49133768     224.20000000       6.00000000       0.01228344     481.00000000
  1 33 158     223.50000000   38550.71200000     223.39999000       6.00000000     963.76781000     489.00000000
  1 33 158     223.50000000   23696.46400000     223.39999000       6.00000000     592.41161000     500.00000000
  1 32 157     224.30000000  4.92222550E+05     224.20000000       6.00000000   12305.56400000     510.00000000
  1 32 156     224.30000000       1.01444650     224.20000000       6.00000000       0.02536116     510.00000000
  1 33 158     223.50000000  3.51262220E+05     223.39999000       6.00000000    8781.55540000     520.00000000
  1 32 156     224.30000000  4.55066110E+05     224.20000000       6.00000000   11376.65300000     530.00000000
  1 32 156     224.30000000       6.15635170     224.20000000       6.00000000       0.15390879     542.00000000
  1 32 155     225.20001000  1.48265040E+05     225.10001000       6.00000000    3706.62600000     542.00000000
  1 32 155     225.20001000       3.62069320     225.10001000       6.00000000       0.09051733     553.00000000
  1 31 155     228.90001000  3.58398980E+05     228.80000000       6.00000000    8959.97460000     553.00000000
  1 31 155     228.90001000       1.32662720     228.80000000       6.00000000       0.03316568     562.00000000
  1 31 154     245.20001000  4.27487410E+05     245.10001000       6.00000000   10687.18500000     562.00000000
  1 31 154     245.20001000       6.93247110     245.10001000       6.00000000       0.17331178     571.00000000
  1 31 153     245.20001000  1.60478010E+05     245.10001000       6.00000000    4011.95020000     571.00000000
  1 21 140     308.30002000       7.58781980     308.20001000       6.00000000       0.18969550     588.00000000
  1 20 140     308.30002000   17228.18000000     308.20001000       6.00000000     430.70451000     588.00000000
  1 20 141     333.89999000       5.78108770     333.79999000       6.00000000       0.14452719     588.00000000
  1 25 145     342.70001000   15351.90400000     342.60001000       6.00000000    7675.95200000     595.00000000
  1 26 146     342.70001000   17766.69900000     342.60001000       6.00000000    8883.34930000     603.00000000
  1 27 146     322.70001000       0.10346829     322.60001000       6.00000000       0.05173414     603.00000000
  1 25 144     348.60001000   16554.92800000     348.50000000       6.00000000    8277.46410000     610.00000000
  1 25 145     342.70001000       0.41756421     342.60001000       6.00000000       0.20878211     610.00000000
  1 27 146     322.70001000   12042.14900000     322.60001000       6.00000000    6021.07440000     621.00000000
  1 27 147     322.70001000       0.23896200     322.60001000       6.00000000       0.11948100     621.00000000
  1 25 145     342.70001000       0.26857324     342.60001000       6.00000000       0.13428662     633.00000000
  1 26 145     342.70001000   14414.64300000     342.60001000       6.00000000    7207.32140000     633.00000000
  1 26 146     342.70001000       0.18578477     342.60001000       6.00000000       0.09289238     633.00000000
  1 24 144     348.60001000   10789.74200000     348.50000000       6.00000000    5394.87110000     638.00000000
  1 25 144     348.60001000       0.09519331     348.50000000       6.00000000       0.04759665     638.00000000
  1 27 147     322.70001000   15692.57800000     322.60001000       6.00000000    7846.28900000     639.00000000
  1 28 147     322.70001000       0.26953549     322.60001000       6.00000000       0.13476774     639.00000000
  1 28 147     322.70001000   15603.74500000     322.60001000       6.00000000    7801.87240000     640.00000000
  1 28 148     302.60001000       0.18515027     302.50000000       6.00000000       0.09257514     640.00000000
  1 28 148     302.60001000   12663.47500000     302.50000000       6.00000000    6331.73760000     641.00000000
  1 29 148     302.60001000       0.14985521     302.50000000       6.00000000       0.07492760     641.00000000
  1 30 150     271.30002000   13803.55900000     271.20001000       6.00000000    6901.77950000     642.00000000
  1 24 143     344.00000000   18426.13400000     343.89999000       6.00000000    9213.06680000     643.00000000
  1 24 144     348.60001000       0.02713993     348.50000000       6.00000000       0.01356996     643.00000000
  1 29 148     302.60001000   22494.45100000     302.50000000       6.00000000   11247.22500000     644.00000000
  1 30 148     283.10001000       0.04288443     283.00000000       6.00000000       0.02144222     644.00000000
  1 30 150     271.30002000       0.02932466     271.20001000       6.00000000       0.01466233     645.00000000
  1 31 150     250.90001000   22479.54700000     250.80000000       6.00000000   11239.77400000     645.00000000
  1 32 150     217.40001000       0.23478988     217.30000000       6.00000000       0.11739494     645.00000000
  1 22 140     308.30002000   22536.43400000     308.20001000       6.00000000   11268.21700000     647.00000000
  1 30 148     283.10001000   21109.60400000     283.00000000       6.00000000   10554.80200000     648.00000000
  1 30 148     283.10001000       0.31943050     283.00000000       6.00000000       0.15971525     649.00000000
  1 30 149     271.30002000    1794.12100000     271.20001000       6.00000000     897.06048000     649.00000000
  1 30 149     271.30002000       0.14984857     271.20001000       6.00000000       0.07492428     650.00000000
  1 31 149     232.80000000   23527.54100000     232.70000000       6.00000000   11763.77000000     650.00000000
  1 32 150     217.40001000   25368.74700000     217.30000000       6.00000000   12684.37400000     651.00000000
  1 33 150     238.10001000       0.17208639     238.00000000       6.00000000       0.08604320     651.00000000
  1 37 155     138.60001000   18226.41500000     138.50000000       6.00000000    9113.20770000     652.00000000
  1 24 140     333.89999000       0.05432737     333.79999000       6.00000000       0.02716369     653.00000000
  1 23 140     304.20001000   22933.51300000     304.10001000       6.00000000   11466.75700000     653.00000000
  1 22 140     308.30002000       0.03921444     308.20001000       6.00000000       0.01960722     653.00000000
  1 33 150     238.10001000    8323.89970000     238.00000000       6.00000000    4161.94990000     654.00000000
  1 33 150     238.10001000    1881.71210000     238.00000000       6.00000000     940.85603000     655.00000000
  1 33 149     251.50000000    7784.26850000     251.39999000       6.00000000    3892.13420000     656.00000000
  1 33 150     238.10001000       0.10334833     238.00000000       6.00000000       0.05167416     656.00000000
  1 31 149     232.80000000       0.04539043     232.70000000       6.00000000       0.02269522     658.00000000
  1 32 149     243.00000000   23872.09800000     242.89999000       6.00000000   11936.04900000     658.00000000
  1 33 149     251.50000000       0.29266736     251.39999000       6.00000000       0.14633368     658.00000000
  1 37 154     137.20001000   16820.28100000     137.10001000       6.00000000    8410.14040000     659.00000000
  1 37 155     138.60001000       0.08873830     138.50000000       6.00000000       0.04436915     659.00000000
  1 37 154     137.20001000    6365.09240000     137.10001000       6.00000000    3182.54620000     660.00000000
  1 37 153     145.50000000    5150.10050000     145.39999000       6.00000000    2575.05020000     661.00000000
  1 37 154     137.20001000       0.31731652     137.10001000       6.00000000       0.15865826     661.00000000
  1 24 139     304.20001000       0.15329688     304.10001000       6.00000000       0.07664844     662.00000000
  1 24 140     333.89999000    5797.71220000     333.79999000       6.00000000    2898.85610000     662.00000000
  1 36 153     185.80000000   19036.98800000     185.70000000       6.00000000    9518.49420000     663.00000000
  1 37 153     145.50000000       0.25280060     145.39999000       6.00000000       0.12640030     663.00000000
  1 33 150     238.10001000   14851.64100000     238.00000000       6.00000000    7425.82070000     664.00000000
  1 34 150     213.20001000       0.12496571     213.10001000       6.00000000       0.06248285     664.00000000
  1 35 152     233.60001000    8510.63360000     233.50000000       6.00000000    4255.31680000     665.00000000
  1 36 152     202.90001000       0.48559088     202.80000000       6.00000000       0.24279544     665.00000000
  1 36 152     202.90001000   19541.62500000     202.80000000       6.00000000    9770.81260000     666.00000000
  1 36 153     185.80000000       0.03181600     185.70000000       6.00000000       0.01590800     666.00000000
  1 24 139     304.20001000   12739.70600000     304.10001000       6.00000000    6369.85300000     667.00000000
  1 24 139     304.20001000     445.59097000     304.10001000       6.00000000     222.79548000       3.00000000
  1 35 151     182.80000000   26050.00700000     182.70000000       6.00000000   13025.00400000       4.00000000
  1 35 152     233.60001000       0.27678748     233.50000000       6.00000000       0.13839374       4.00000000
  1 24 140     333.89999000    4824.68280000     333.79999000       6.00000000    2412.34140000       5.00000000
  1 24 139     304.20001000       0.82330949     304.10001000       6.00000000       0.41165475       5.00000000
  1 35 150     241.90001000    5199.22870000     241.80000000       6.00000000    2599.61440000       6.00000000
  1 35 151     182.80000000       0.09248191     182.70000000       6.00000000       0.04624095       6.00000000
  1 34 150     213.20001000   27046.94400000     213.10001000       6.00000000   13523.47200000       7.00000000
  1 35 150     241.90001000       0.26062021     241.80000000       6.00000000       0.13031010       7.00000000
  1 26 140     305.20001000       0.04913453     305.10001000       6.00000000       0.02456727       8.00000000
  1 25 140     333.89999000   22215.20500000     333.79999000       6.00000000   11107.60300000       8.00000000
  1 24 140     333.89999000       0.18952221     333.79999000       6.00000000       0.09476110       8.00000000
  1 27 140     305.20001000       0.14200760     305.10001000       6.00000000       0.07100380       9.00000000
  1 26 140     305.20001000   21423.14300000     305.10001000       6.00000000   10711.57100000       9.00000000
  1 32 144     274.60001000       0.04337306     274.50000000       6.00000000       0.02168653      10.00000000
  1 31 144     295.70001000    6873.35560000     295.60001000       6.00000000    3436.67780000      10.00000000
  1 32 144     274.60001000    1120.14660000     274.50000000       6.00000000     560.07332000      11.00000000
  1 27 139     297.50000000       0.25554310     297.39999000       6.00000000       0.12777155      12.00000000
  1 27 140     305.20001000   15808.73100000     305.10001000       6.00000000    7904.36530000      12.00000000
  1 28 139     297.50000000       0.05127827     297.39999000       6.00000000       0.02563914      14.00000000
  1 27 139     297.50000000    6294.24150000     297.39999000       6.00000000    3147.12070000      14.00000000
  1 33 145     249.40001000       0.05505066     249.30000000       6.00000000       0.02752533      15.00000000
  1 32 145     283.39999000   20453.10800000     283.29999000       6.00000000   10226.55400000      15.00000000
  1 32 144     274.60001000       0.34687259     274.50000000       6.00000000       0.17343629      15.00000000
  1 33 144     234.80000000       0.06429196     234.70000000       6.00000000       0.03214598      16.00000000
  1 33 145     249.40001000   21292.49500000     249.30000000       6.00000000   10646.24700000      16.00000000
  1 28 138     297.50000000     317.48046000     297.39999000       6.00000000     158.74023000      17.00000000
  1 28 139     297.50000000   29626.94000000     297.39999000       6.00000000   14813.47000000      17.00000000
  1 29 138     285.60001000   12034.68700000     285.50000000       6.00000000    6017.34350000      18.00000000
  1 28 138     297.50000000      67.96668700     297.39999000       6.00000000      33.98334400      18.00000000
  1 30 139     273.70001000       0.56393327     273.60001000       6.00000000       0.28196663      19.00000000
  1 29 139     287.30002000   15399.79700000     287.20001000       6.00000000    7699.89860000      19.00000000
  1 29 138     285.60001000      96.53644700     285.50000000       6.00000000      48.26822400      19.00000000
  1 30 139     273.70001000   15820.80700000     273.60001000       6.00000000    7910.40340000      20.00000000
  1 30 140     275.70001000   10740.97700000     275.60001000       6.00000000    5370.48860000      21.00000000
  1 30 139     273.70001000       0.02288545     273.60001000       6.00000000       0.01144272      21.00000000
  1 34 144     216.10001000   22358.19400000     216.00000000       6.00000000   11179.09700000      22.00000000
  1 33 144     234.80000000       0.07704671     234.70000000       6.00000000       0.03852336      22.00000000
  1 31 140     256.10001000       0.18715995     256.00000000       6.00000000       0.09357997      23.00000000
  1 30 140     275.70001000    2002.99540000     275.60001000       6.00000000    1001.49770000      23.00000000
  1 36 144     225.50000000       0.12585106     225.39999000       6.00000000       0.06292553      25.00000000
  1 35 144     218.20001000   21482.30700000     218.10001000       6.00000000   10741.15400000      25.00000000
  1 34 144     216.10001000       0.13208336     216.00000000       6.00000000       0.06604168      25.00000000
  1 32 140     236.50000000       0.30583215     236.39999000       6.00000000       0.15291607      26.00000000
  1 31 140     256.10001000   21250.71600000     256.00000000       6.00000000   10625.35800000      26.00000000
  1 32 140     236.50000000   21778.37400000     236.39999000       6.00000000   10889.18700000      27.00000000
  1 36 144     225.50000000   14820.94900000     225.39999000       6.00000000    7410.47460000      28.00000000
  1 34 140     214.00000000       0.00823118     213.89999000       6.00000000       0.00411559      29.00000000
  1 33 140     221.60001000   21390.49500000     221.50000000       6.00000000   10695.24800000      29.00000000
  1 32 140     236.50000000       0.04028393     236.39999000       6.00000000       0.02014196      29.00000000
  1 35 140     212.10001000       0.01844831     212.00000000       6.00000000       0.00922415      30.00000000
  1 34 140     214.00000000   21218.11000000     213.89999000       6.00000000   10609.05500000      30.00000000
  1 36 140     211.70001000       0.16523075     211.60001000       6.00000000       0.08261537      31.00000000
  1 35 140     212.10001000   21337.68900000     212.00000000       6.00000000   10668.84400000      31.00000000
  1 31 136     279.30002000   23046.43600000     279.20001000       6.00000000   11523.21800000      32.00000000
  1 32 136     267.80002000     839.06350000     267.70001000       6.00000000     419.53175000      33.00000000
  1 31 136     279.30002000       0.23803681     279.20001000       6.00000000       0.11901840      33.00000000
  1 33 137     244.50000000    5481.95660000     244.39999000       6.00000000    2740.97830000      34.00000000
  1 36 140     211.70001000   23097.40600000     211.60001000       6.00000000   11548.70300000      36.00000000
  1 36 139     207.70001000    1176.67840000     207.60001000       6.00000000     588.33922000      37.00000000
  1 36 140     211.70001000       0.39538610     211.60001000       6.00000000       0.19769305      37.00000000
  1 34 136     235.00000000       0.05101128     234.89999000       6.00000000       0.02550564      38.00000000
  1 33 136     253.10001000   13759.24500000     253.00000000       6.00000000    6879.62230000      38.00000000
  1 33 137     244.50000000       0.05495802     244.39999000       6.00000000       0.02747901      38.00000000
  1 32 135     278.89999000   24286.96200000     278.79999000       6.00000000   12143.48100000      39.00000000
  1 32 136     267.80002000       0.34913182     267.70001000       6.00000000       0.17456591      39.00000000
  1 35 136     214.60001000       0.04784432     214.50000000       6.00000000       0.02392216      40.00000000
  1 34 136     235.00000000   23014.30400000     234.89999000       6.00000000   11507.15200000      40.00000000
  1 33 135     248.80000000   22058.79500000     248.70000000       6.00000000   11029.39700000      41.00000000
  1 32 135     278.89999000       0.19302445     278.79999000       6.00000000       0.09651222      41.00000000
  1 34 135     240.10001000   21980.66900000     240.00000000       6.00000000   10990.33400000      42.00000000
  1 33 135     248.80000000       0.06629856     248.70000000       6.00000000       0.03314928      42.00000000
  1 36 136     195.10001000       0.14876877     195.00000000       6.00000000       0.07438438      43.00000000
  1 35 136     214.60001000   21138.59800000     214.50000000       6.00000000   10569.29900000      43.00000000
  1 35 135     219.20001000    9737.41850000     219.10001000       6.00000000    4868.70930000      44.00000000
  1 34 135     240.10001000       0.01616462     240.00000000       6.00000000       0.00808231      44.00000000
  1 36 136     195.10001000    8213.58390000     195.00000000       6.00000000    4106.79200000      45.00000000
  1 36 135     198.40001000   13949.08100000     198.30000000       6.00000000    6974.54060000      47.00000000
  1 36 136     195.10001000       0.44798022     195.00000000       6.00000000       0.22399011      47.00000000
  1 35 134     215.50000000   20406.03600000     215.39999000       6.00000000   10203.01800000      48.00000000
  1 35 135     219.20001000       0.18079771     219.10001000       6.00000000       0.09039885      48.00000000
  1 31 124      77.00000000       0.08263913      76.90000200       6.00000000       0.00206598      49.00000000
  1 30 124      92.09999800  3.15981320E+05      92.00000000       6.00000000    7899.53310000      49.00000000
  1 22 114     297.70001000       4.30261560     297.60001000       6.00000000       0.10756539      50.00000000
  1 21 114     295.20001000  1.60545380E+05     295.10001000       6.00000000    4013.63450000      50.00000000
  1 31 124      77.00000000  4.64386570E+05      76.90000200       6.00000000   11609.66400000      51.00000000