# File generated by Flopy version 3.3.7 on 04/18/2023 at 17:35:08.
BEGIN Options
  PRINT_OPTION  summary
  COMPLEXITY  simple
END Options

BEGIN Nonlinear
  OUTER_DVCLOSE  1.00000000E-06
  OUTER_MAXIMUM  200
  UNDER_RELAXATION  none
  UNDER_RELAXATION_GAMMA       0.00000000
  UNDER_RELAXATION_THETA       0.00000000
  UNDER_RELAXATION_KAPPA       0.00000000
  UNDER_RELAXATION_MOMENTUM       0.00000000
END Nonlinear

BEGIN LINEAR
  INNER_MAXIMUM  100
  INNER_DVCLOSE  1.00000000E-07
  INNER_RCLOSE  1.00000000E-04
  LINEAR_ACCELERATION  bicgstab
  NUMBER_ORTHOGONALIZATIONS  2
  REORDERING_METHOD  none
END LINEAR

