# File generated by Flopy version 3.3.7 on 04/18/2023 at 17:35:08.
BEGIN Options
  TIME_UNITS  days
END Options

BEGIN Dimensions
  NPER  6
END Dimensions

BEGIN PERIODDATA
       1.00000000  2       1.10000000  PERLEN NSTP TSMULT
    3651.00000000  2       1.10000000  PERLEN NSTP TSMULT
    3652.00000000  2       1.10000000  PERLEN NSTP TSMULT
    3653.00000000  2       1.10000000  PERLEN NSTP TSMULT
    3652.00000000  2       1.10000000  PERLEN NSTP TSMULT
    3653.00000000  2       1.10000000
END PERIODDATA

