# File generated by Flopy version 3.3.7 on 04/18/2023 at 17:35:14.
BEGIN Options
  AUXILIARY  iface
  PRINT_INPUT
  PRINT_FLOWS
  SAVE_FLOWS
END Options

BEGIN Dimensions
  MAXBOUND  3971
END Dimensions

BEGIN PERIOD  1
  11 25 57       0.00000000       0.00000000
  9 31 54       0.00000000       0.00000000
  11 26 48       0.00000000       0.00000000
  13 79 78       0.00000000       0.00000000
  13 81 81       0.00000000       0.00000000
  11 47 53       0.00000000       0.00000000
  11 49 51       0.00000000       0.00000000
  11 50 47       0.00000000       0.00000000
  11 46 66       0.00000000       0.00000000
  13 62 65       0.00000000       0.00000000
  11 44 117       0.00000000       0.00000000
  9 36 115       0.00000000       0.00000000
  11 48 117       0.00000000       0.00000000
  11 80 102       0.00000000       0.00000000
  11 76 122       0.00000000       0.00000000
  11 77 129       0.00000000       0.00000000
  9 38 103       0.00000000       0.00000000
  11 38 103       0.00000000       0.00000000
  11 44 73       0.00000000       0.00000000
  3 51 71       0.00000000       0.00000000
  13 47 136       0.00000000       0.00000000
  11 43 92       0.00000000       0.00000000
  11 41 93       0.00000000       0.00000000
  11 65 101       0.00000000       0.00000000
  1 30 143       0.00000000       0.00000000
  1 27 143       0.00000000       0.00000000
  1 29 146       0.00000000       0.00000000
  1 29 146       0.00000000       0.00000000
  1 23 143       0.00000000       0.00000000
  1 30 141       0.00000000       0.00000000
  3 47 41       0.00000000       0.00000000
  3 47 41       0.00000000       0.00000000
  3 53 40       0.00000000       0.00000000
  3 45 35       0.00000000       0.00000000
  3 26 31       0.00000000       0.00000000
  3 33 30       0.00000000       0.00000000
  3 40 36       0.00000000       0.00000000
  3 47 40       0.00000000       0.00000000
  3 47 41       0.00000000       0.00000000
  3 47 40       0.00000000       0.00000000
  3 47 40       0.00000000       0.00000000
  3 43 43       0.00000000       0.00000000
  3 38 46       0.00000000       0.00000000
  3 38 46       0.00000000       0.00000000
  3 54 40       0.00000000       0.00000000
  3 54 40       0.00000000       0.00000000
  3 54 40       0.00000000       0.00000000
  3 55 38       0.00000000       0.00000000
  3 55 41       0.00000000       0.00000000
  3 49 40       0.00000000       0.00000000
  3 48 42       0.00000000       0.00000000
  3 49 43       0.00000000       0.00000000
  3 52 39       0.00000000       0.00000000
  3 53 38       0.00000000       0.00000000
  3 53 38       0.00000000       0.00000000
  3 43 47       0.00000000       0.00000000
  3 51 41       0.00000000       0.00000000
  3 49 44       0.00000000       0.00000000
  3 49 39       0.00000000       0.00000000
  3 49 39       0.00000000       0.00000000
  3 49 39       0.00000000       0.00000000
  3 42 46       0.00000000       0.00000000
  3 55 39       0.00000000       0.00000000
  3 55 39       0.00000000       0.00000000
  3 55 39       0.00000000       0.00000000
  3 51 43       0.00000000       0.00000000
  3 50 36       0.00000000       0.00000000
  3 51 42       0.00000000       0.00000000
  3 47 35       0.00000000       0.00000000
  3 53 38       0.00000000       0.00000000
  3 53 40       0.00000000       0.00000000
  3 53 40       0.00000000       0.00000000
  3 48 44       0.00000000       0.00000000
  3 52 42       0.00000000       0.00000000
  3 52 43       0.00000000       0.00000000
  3 51 39       0.00000000       0.00000000
  3 55 42       0.00000000       0.00000000
  3 52 41       0.00000000       0.00000000
  3 52 41       0.00000000       0.00000000
  3 51 42       0.00000000       0.00000000
  3 54 40       0.00000000       0.00000000
  3 43 42       0.00000000       0.00000000
  3 53 39       0.00000000       0.00000000
  3 55 41       0.00000000       0.00000000
  3 50 43       0.00000000       0.00000000
  3 46 42       0.00000000       0.00000000
  3 52 41       0.00000000       0.00000000
  3 47 37       0.00000000       0.00000000
  3 48 36       0.00000000       0.00000000
  3 44 48       0.00000000       0.00000000
  3 52 43       0.00000000       0.00000000
  3 50 36       0.00000000       0.00000000
  3 46 38       0.00000000       0.00000000
  3 54 41       0.00000000       0.00000000
  3 50 36       0.00000000       0.00000000
  3 48 38       0.00000000       0.00000000
  3 42 47       0.00000000       0.00000000
  3 43 43       0.00000000       0.00000000
  3 51 38       0.00000000       0.00000000
  3 48 38       0.00000000       0.00000000
  3 47 38       0.00000000       0.00000000
  3 46 37       0.00000000       0.00000000
  3 46 37       0.00000000       0.00000000
  3 35 35       0.00000000       0.00000000
  3 39 38       0.00000000       0.00000000
  3 45 36       0.00000000       0.00000000
  3 54 41       0.00000000       0.00000000
  3 54 40       0.00000000       0.00000000
  3 46 38       0.00000000       0.00000000
  3 33 32       0.00000000       0.00000000
  3 47 38       0.00000000       0.00000000
  3 45 36       0.00000000       0.00000000
  3 26 31       0.00000000       0.00000000
  3 26 31       0.00000000       0.00000000
  3 26 31       0.00000000       0.00000000
  3 26 31       0.00000000       0.00000000
  3 26 31       0.00000000       0.00000000
  3 26 31       0.00000000       0.00000000
  3 19 34       0.00000000       0.00000000
  3 19 34       0.00000000       0.00000000
  3 19 34       0.00000000       0.00000000
  3 21 42       0.00000000       0.00000000
  3 21 42       0.00000000       0.00000000
  3 34 30       0.00000000       0.00000000
  3 34 30       0.00000000       0.00000000
  3 34 30       0.00000000       0.00000000
  3 40 36       0.00000000       0.00000000
  3 40 36       0.00000000       0.00000000
  3 39 43       0.00000000       0.00000000
  3 39 43       0.00000000       0.00000000
  3 39 43       0.00000000       0.00000000
  3 20 36       0.00000000       0.00000000
  3 20 36       0.00000000       0.00000000
  3 20 36       0.00000000       0.00000000
  3 20 36       0.00000000       0.00000000
  3 20 36       0.00000000       0.00000000
  3 20 36       0.00000000       0.00000000
  3 22 42       0.00000000       0.00000000
  3 22 42       0.00000000       0.00000000
  3 22 42       0.00000000       0.00000000
  3 31 41       0.00000000       0.00000000
  3 31 41       0.00000000       0.00000000
  3 43 43       0.00000000       0.00000000
  3 38 46       0.00000000       0.00000000
  3 38 46       0.00000000       0.00000000
  3 28 35       0.00000000       0.00000000
  3 28 35       0.00000000       0.00000000
  3 40 36       0.00000000       0.00000000
  3 40 36       0.00000000       0.00000000
  3 40 36       0.00000000       0.00000000
  3 39 43       0.00000000       0.00000000
  3 39 44       0.00000000       0.00000000
  3 39 43       0.00000000       0.00000000
  3 47 41       0.00000000       0.00000000
  3 21 43       0.00000000       0.00000000
  3 21 43       0.00000000       0.00000000
  3 21 43       0.00000000       0.00000000
  3 20 43       0.00000000       0.00000000
  3 55 37       0.00000000       0.00000000
  3 54 40       0.00000000       0.00000000
  3 47 40       0.00000000       0.00000000
  3 47 41       0.00000000       0.00000000
  3 43 47       0.00000000       0.00000000
  3 44 48       0.00000000       0.00000000
  3 41 46       0.00000000       0.00000000
  3 38 46       0.00000000       0.00000000
  3 37 45       0.00000000       0.00000000
  3 37 47       0.00000000       0.00000000
  3 37 47       0.00000000       0.00000000
  3 47 41       0.00000000       0.00000000
  3 36 31       0.00000000       0.00000000
  3 32 34       0.00000000       0.00000000
  3 43 43       0.00000000       0.00000000
  3 37 38       0.00000000       0.00000000
  3 43 45       0.00000000       0.00000000
  3 31 41       0.00000000       0.00000000
  3 34 45       0.00000000       0.00000000
  3 22 42       0.00000000       0.00000000
  3 28 35       0.00000000       0.00000000
  3 28 35       0.00000000       0.00000000
  3 31 41       0.00000000       0.00000000
  3 23 33       0.00000000       0.00000000
  3 33 47       0.00000000       0.00000000
  3 19 34       0.00000000       0.00000000
  3 40 36       0.00000000       0.00000000
  3 34 30       0.00000000       0.00000000
  3 43 46       0.00000000       0.00000000
  3 41 46       0.00000000       0.00000000
  3 41 47       0.00000000       0.00000000
  3 31 39       0.00000000       0.00000000
  3 27 26       0.00000000       0.00000000
  3 74 28       0.00000000       0.00000000
  3 63 27       0.00000000       0.00000000
  3 63 26       0.00000000       0.00000000
  3 52 30       0.00000000       0.00000000
  3 52 30       0.00000000       0.00000000
  3 51 34       0.00000000       0.00000000
  3 51 34       0.00000000       0.00000000
  3 56 31       0.00000000       0.00000000
  3 56 31       0.00000000       0.00000000
  3 57 27       0.00000000       0.00000000
  3 46 29       0.00000000       0.00000000
  3 46 29       0.00000000       0.00000000
  3 52 26       0.00000000       0.00000000
  3 52 31       0.00000000       0.00000000
  3 52 31       0.00000000       0.00000000
  3 52 31       0.00000000       0.00000000
  3 52 30       0.00000000       0.00000000
  3 52 31       0.00000000       0.00000000
  3 51 31       0.00000000       0.00000000
  3 52 31       0.00000000       0.00000000
  3 52 31       0.00000000       0.00000000
  3 38 46       0.00000000       0.00000000
  3 39 43       0.00000000       0.00000000
  3 39 43       0.00000000       0.00000000
  3 28 35       0.00000000       0.00000000
  3 31 41       0.00000000       0.00000000
  3 48 23       0.00000000       0.00000000
  3 47 24       0.00000000       0.00000000
  3 48 24       0.00000000       0.00000000
  3 76 35       0.00000000       0.00000000
  3 79 35       0.00000000       0.00000000
  3 73 35       0.00000000       0.00000000
  3 74 36       0.00000000       0.00000000
  3 74 36       0.00000000       0.00000000
  3 72 37       0.00000000       0.00000000
  3 76 38       0.00000000       0.00000000
  3 76 38       0.00000000       0.00000000
  3 76 37       0.00000000       0.00000000
  3 76 37       0.00000000       0.00000000
  3 73 35       0.00000000       0.00000000
  3 74 36       0.00000000       0.00000000
  3 74 36       0.00000000       0.00000000
  3 73 36       0.00000000       0.00000000
  3 73 37       0.00000000       0.00000000
  3 73 37       0.00000000       0.00000000
  3 70 38       0.00000000       0.00000000
  3 70 38       0.00000000       0.00000000
  3 76 37       0.00000000       0.00000000
  3 73 36       0.00000000       0.00000000
  3 73 36       0.00000000       0.00000000
  3 73 36       0.00000000       0.00000000
  3 71 34       0.00000000       0.00000000
  3 71 34       0.00000000       0.00000000
  3 72 37       0.00000000       0.00000000
  3 72 37       0.00000000       0.00000000
  3 82 40       0.00000000       0.00000000
  3 81 40       0.00000000       0.00000000
  3 82 40       0.00000000       0.00000000
  3 77 36       0.00000000       0.00000000
  3 77 36       0.00000000       0.00000000
  3 77 36       0.00000000       0.00000000
  3 70 33       0.00000000       0.00000000
  3 76 34       0.00000000       0.00000000
  3 76 33       0.00000000       0.00000000
  3 75 34       0.00000000       0.00000000
  3 75 33       0.00000000       0.00000000
  3 75 33       0.00000000       0.00000000
  3 75 33       0.00000000       0.00000000
  3 75 32       0.00000000       0.00000000
  3 75 33       0.00000000       0.00000000
  3 75 33       0.00000000       0.00000000
  3 72 35       0.00000000       0.00000000
  3 79 35       0.00000000       0.00000000
  3 80 34       0.00000000       0.00000000
  3 80 35       0.00000000       0.00000000
  3 71 35       0.00000000       0.00000000
  3 72 37       0.00000000       0.00000000
  3 72 37       0.00000000       0.00000000
  3 72 37       0.00000000       0.00000000
  3 75 37       0.00000000       0.00000000
  3 75 37       0.00000000       0.00000000
  3 75 37       0.00000000       0.00000000
  3 67 32       0.00000000       0.00000000
  3 67 32       0.00000000       0.00000000
  3 67 32       0.00000000       0.00000000
  3 62 36       0.00000000       0.00000000
  3 63 36       0.00000000       0.00000000
  3 67 38       0.00000000       0.00000000
  3 67 38       0.00000000       0.00000000
  3 63 39       0.00000000       0.00000000
  3 63 39       0.00000000       0.00000000
  3 68 33       0.00000000       0.00000000
  3 74 34       0.00000000       0.00000000
  3 66 42       0.00000000       0.00000000
  3 33 15       0.00000000       0.00000000
  3 33 15       0.00000000       0.00000000
  3 41 29       0.00000000       0.00000000
  3 37 22       0.00000000       0.00000000
  3 37 22       0.00000000       0.00000000
  3 37 22       0.00000000       0.00000000
  3 36 22       0.00000000       0.00000000
  3 38 22       0.00000000       0.00000000
  3 38 22       0.00000000       0.00000000
  3 37 23       0.00000000       0.00000000
  3 37 23       0.00000000       0.00000000
  3 41 26       0.00000000       0.00000000
  3 41 26       0.00000000       0.00000000
  3 58 17       0.00000000       0.00000000
  3 55 20       0.00000000       0.00000000
  3 55 19       0.00000000       0.00000000
  3 57 21       0.00000000       0.00000000
  3 58 22       0.00000000       0.00000000
  3 58 22       0.00000000       0.00000000
  3 56 20       0.00000000       0.00000000
  3 56 20       0.00000000       0.00000000
  3 16 32       0.00000000       0.00000000
  3 24 30       0.00000000       0.00000000
  3 24 29       0.00000000       0.00000000
  3 24 29       0.00000000       0.00000000
  3 18 32       0.00000000       0.00000000
  3 18 33       0.00000000       0.00000000
  3 27 27       0.00000000       0.00000000
  3 25 30       0.00000000       0.00000000
  3 26 31       0.00000000       0.00000000
  3 26 30       0.00000000       0.00000000
  3 26 30       0.00000000       0.00000000
  3 19 34       0.00000000       0.00000000
  3 19 34       0.00000000       0.00000000
  3 29 27       0.00000000       0.00000000
  3 29 27       0.00000000       0.00000000
  3 29 28       0.00000000       0.00000000
  3 39 36       0.00000000       0.00000000
  3 40 36       0.00000000       0.00000000
  3 40 36       0.00000000       0.00000000
  3 40 36       0.00000000       0.00000000
  3 37 38       0.00000000       0.00000000
  3 31 21       0.00000000       0.00000000
  3 31 21       0.00000000       0.00000000
  3 31 14       0.00000000       0.00000000
  3 26 18       0.00000000       0.00000000
  3 26 17       0.00000000       0.00000000
  3 26 17       0.00000000       0.00000000
  3 71 20       0.00000000       0.00000000
  3 70 20       0.00000000       0.00000000
  3 70 20       0.00000000       0.00000000
  3 70 20       0.00000000       0.00000000
  3 70 21       0.00000000       0.00000000
  3 70 22       0.00000000       0.00000000
  3 60 21       0.00000000       0.00000000
  3 65 19       0.00000000       0.00000000
  3 63 25       0.00000000       0.00000000
  3 70 24       0.00000000       0.00000000
  3 77 22       0.00000000       0.00000000
  3 77 22       0.00000000       0.00000000
  3 77 22       0.00000000       0.00000000
  3 71 20       0.00000000       0.00000000
  3 71 21       0.00000000       0.00000000
  3 71 19       0.00000000       0.00000000
  3 72 19       0.00000000       0.00000000
  3 71 14       0.00000000       0.00000000
  3 86 13       0.00000000       0.00000000
  3 86 13       0.00000000       0.00000000
  3 86 13       0.00000000       0.00000000
  3 84 21       0.00000000       0.00000000
  3 42 7       0.00000000       0.00000000
  3 43 7       0.00000000       0.00000000
  3 47 7       0.00000000       0.00000000
  3 48 4       0.00000000       0.00000000
  3 42 7       0.00000000       0.00000000
  3 42 7       0.00000000       0.00000000
  3 42 7       0.00000000       0.00000000
  3 39 11       0.00000000       0.00000000
  3 47 5       0.00000000       0.00000000
  3 49 35       0.00000000       0.00000000
  3 43 43       0.00000000       0.00000000
  3 54 40       0.00000000       0.00000000
  3 54 40       0.00000000       0.00000000
  3 54 40       0.00000000       0.00000000
  3 55 37       0.00000000       0.00000000
  3 55 37       0.00000000       0.00000000
  3 47 41       0.00000000       0.00000000
  3 47 41       0.00000000       0.00000000
  3 47 41       0.00000000       0.00000000
  3 47 40       0.00000000       0.00000000
  3 55 12       0.00000000       0.00000000
  3 55 12       0.00000000       0.00000000
  3 55 12       0.00000000       0.00000000
  3 49 19       0.00000000       0.00000000
  3 49 19       0.00000000       0.00000000
  3 52 17       0.00000000       0.00000000
  3 62 15       0.00000000       0.00000000
  3 62 15       0.00000000       0.00000000
  3 54 19       0.00000000       0.00000000
  3 54 14       0.00000000       0.00000000
  3 48 14       0.00000000       0.00000000
  3 47 13       0.00000000       0.00000000
  3 45 11       0.00000000       0.00000000
  3 45 12       0.00000000       0.00000000
  3 45 12       0.00000000       0.00000000
  3 37 12       0.00000000       0.00000000
  3 37 12       0.00000000       0.00000000
  3 22 26       0.00000000       0.00000000
  3 23 20       0.00000000       0.00000000
  3 23 23       0.00000000       0.00000000
  3 18 22       0.00000000       0.00000000
  3 18 22       0.00000000       0.00000000
  3 19 20       0.00000000       0.00000000
  3 19 20       0.00000000       0.00000000
  3 76 36       0.00000000       0.00000000
  3 75 36       0.00000000       0.00000000
  3 75 36       0.00000000       0.00000000
  3 75 36       0.00000000       0.00000000
  3 75 34       0.00000000       0.00000000
  3 76 36       0.00000000       0.00000000
  3 76 37       0.00000000       0.00000000
  3 76 35       0.00000000       0.00000000
  3 74 36       0.00000000       0.00000000
  3 76 37       0.00000000       0.00000000
  3 75 36       0.00000000       0.00000000
  3 76 34       0.00000000       0.00000000
  3 77 33       0.00000000       0.00000000
  3 76 33       0.00000000       0.00000000
  3 76 37       0.00000000       0.00000000
  3 76 33       0.00000000       0.00000000
  3 75 34       0.00000000       0.00000000
  3 77 32       0.00000000       0.00000000
  3 76 33       0.00000000       0.00000000
  3 74 34       0.00000000       0.00000000
  3 77 36       0.00000000       0.00000000
  3 77 35       0.00000000       0.00000000
  3 72 35       0.00000000       0.00000000
  3 72 35       0.00000000       0.00000000
  3 72 35       0.00000000       0.00000000
  3 75 31       0.00000000       0.00000000
  3 75 32       0.00000000       0.00000000
  3 73 34       0.00000000       0.00000000
  3 73 34       0.00000000       0.00000000
  3 73 31       0.00000000       0.00000000
  3 73 31       0.00000000       0.00000000
  3 78 38       0.00000000       0.00000000
  3 77 37       0.00000000       0.00000000
  3 78 38       0.00000000       0.00000000
  3 78 36       0.00000000       0.00000000
  3 78 36       0.00000000       0.00000000
  3 78 36       0.00000000       0.00000000
  3 79 37       0.00000000       0.00000000
  3 79 37       0.00000000       0.00000000
  3 79 37       0.00000000       0.00000000
  3 79 37       0.00000000       0.00000000
  3 74 36       0.00000000       0.00000000
  3 74 37       0.00000000       0.00000000
  3 74 36       0.00000000       0.00000000
  3 74 36       0.00000000       0.00000000
  3 74 36       0.00000000       0.00000000
  3 70 22       0.00000000       0.00000000
  3 74 36       0.00000000       0.00000000
  3 75 34       0.00000000       0.00000000
  3 76 37       0.00000000       0.00000000
  3 57 21       0.00000000       0.00000000
  3 54 15       0.00000000       0.00000000
  3 39 11       0.00000000       0.00000000
  3 47 5       0.00000000       0.00000000
  3 48 12       0.00000000       0.00000000
  3 52 31       0.00000000       0.00000000
  3 24 29       0.00000000       0.00000000
  3 24 30       0.00000000       0.00000000
  3 25 30       0.00000000       0.00000000
  3 16 32       0.00000000       0.00000000
  3 77 243       0.00000000       0.00000000
  3 58 236       0.00000000       0.00000000
  3 33 209       0.00000000       0.00000000
  3 57 229       0.00000000       0.00000000
  3 31 213       0.00000000       0.00000000
  3 57 230       0.00000000       0.00000000
  3 65 223       0.00000000       0.00000000
  3 65 223       0.00000000       0.00000000
  3 65 223       0.00000000       0.00000000
  3 63 224       0.00000000       0.00000000
  3 89 189       0.00000000       0.00000000
  3 89 189       0.00000000       0.00000000
  3 81 217       0.00000000       0.00000000
  3 56 196       0.00000000       0.00000000
  3 67 222       0.00000000       0.00000000
  3 71 212       0.00000000       0.00000000
  3 71 212       0.00000000       0.00000000
  3 71 212       0.00000000       0.00000000
  3 67 224       0.00000000       0.00000000
  3 67 224       0.00000000       0.00000000
  3 60 216       0.00000000       0.00000000
  3 51 245       0.00000000       0.00000000
  3 46 254       0.00000000       0.00000000
  3 44 249       0.00000000       0.00000000
  3 44 248       0.00000000       0.00000000
  3 48 255       0.00000000       0.00000000
  3 48 255       0.00000000       0.00000000
  3 49 254       0.00000000       0.00000000
  3 47 246       0.00000000       0.00000000
  3 45 253       0.00000000       0.00000000
  3 48 255       0.00000000       0.00000000
  3 45 247       0.00000000       0.00000000
  3 52 252       0.00000000       0.00000000
  3 50 253       0.00000000       0.00000000
  3 49 253       0.00000000       0.00000000
  3 49 253       0.00000000       0.00000000
  3 48 255       0.00000000       0.00000000
  3 47 246       0.00000000       0.00000000
  3 48 255       0.00000000       0.00000000
  3 44 251       0.00000000       0.00000000
  3 48 252       0.00000000       0.00000000
  3 52 252       0.00000000       0.00000000
  3 48 255       0.00000000       0.00000000
  3 49 253       0.00000000       0.00000000
  3 48 252       0.00000000       0.00000000
  3 47 246       0.00000000       0.00000000
  3 47 246       0.00000000       0.00000000
  3 52 245       0.00000000       0.00000000
  3 50 252       0.00000000       0.00000000
  3 45 247       0.00000000       0.00000000
  3 45 247       0.00000000       0.00000000
  3 46 246       0.00000000       0.00000000
  3 46 246       0.00000000       0.00000000
  3 52 252       0.00000000       0.00000000
  3 52 253       0.00000000       0.00000000
  3 45 247       0.00000000       0.00000000
  3 39 246       0.00000000       0.00000000
  3 39 246       0.00000000       0.00000000
  3 39 246       0.00000000       0.00000000
  3 39 246       0.00000000       0.00000000
  3 39 246       0.00000000       0.00000000
  3 39 246       0.00000000       0.00000000
  3 39 246       0.00000000       0.00000000
  3 39 246       0.00000000       0.00000000
  3 38 242       0.00000000       0.00000000
  3 21 227       0.00000000       0.00000000
  3 21 227       0.00000000       0.00000000
  3 41 250       0.00000000       0.00000000
  3 41 250       0.00000000       0.00000000
  3 44 249       0.00000000       0.00000000
  3 46 254       0.00000000       0.00000000
  3 46 254       0.00000000       0.00000000
  3 46 254       0.00000000       0.00000000
  3 52 252       0.00000000       0.00000000
  3 50 251       0.00000000       0.00000000
  3 50 251       0.00000000       0.00000000
  3 50 251       0.00000000       0.00000000
  3 50 251       0.00000000       0.00000000
  3 49 251       0.00000000       0.00000000
  3 49 251       0.00000000       0.00000000
  3 45 247       0.00000000       0.00000000
  3 52 245       0.00000000       0.00000000
  3 45 247       0.00000000       0.00000000
  3 45 247       0.00000000       0.00000000
  3 51 245       0.00000000       0.00000000
  3 47 245       0.00000000       0.00000000
  3 47 246       0.00000000       0.00000000
  3 47 246       0.00000000       0.00000000
  3 41 239       0.00000000       0.00000000
  3 44 249       0.00000000       0.00000000
  3 50 253       0.00000000       0.00000000
  3 46 249       0.00000000       0.00000000
  3 46 249       0.00000000       0.00000000
  3 46 249       0.00000000       0.00000000
  3 45 249       0.00000000       0.00000000
  3 39 246       0.00000000       0.00000000
  3 17 235       0.00000000       0.00000000
  3 15 236       0.00000000       0.00000000
  3 15 236       0.00000000       0.00000000
  3 30 53       0.00000000       0.00000000
  3 24 54       0.00000000       0.00000000
  3 32 68       0.00000000       0.00000000
  3 52 49       0.00000000       0.00000000
  3 52 49       0.00000000       0.00000000
  3 35 61       0.00000000       0.00000000
  3 35 61       0.00000000       0.00000000
  3 75 47       0.00000000       0.00000000
  3 80 44       0.00000000       0.00000000
  3 79 44       0.00000000       0.00000000
  3 80 44       0.00000000       0.00000000
  3 80 44       0.00000000       0.00000000
  3 80 44       0.00000000       0.00000000
  3 80 44       0.00000000       0.00000000
  3 80 47       0.00000000       0.00000000
  3 80 47       0.00000000       0.00000000
  3 80 47       0.00000000       0.00000000
  3 80 47       0.00000000       0.00000000
  3 80 47       0.00000000       0.00000000
  3 73 55       0.00000000       0.00000000
  3 77 46       0.00000000       0.00000000
  3 76 46       0.00000000       0.00000000
  3 79 44       0.00000000       0.00000000
  3 79 44       0.00000000       0.00000000
  3 79 44       0.00000000       0.00000000
  3 79 44       0.00000000       0.00000000
  3 79 44       0.00000000       0.00000000
  3 78 46       0.00000000       0.00000000
  3 78 46       0.00000000       0.00000000
  3 78 46       0.00000000       0.00000000
  3 79 49       0.00000000       0.00000000
  3 79 49       0.00000000       0.00000000
  3 79 49       0.00000000       0.00000000
  3 80 49       0.00000000       0.00000000
  3 80 48       0.00000000       0.00000000
  3 80 48       0.00000000       0.00000000
  3 80 48       0.00000000       0.00000000
  3 80 49       0.00000000       0.00000000
  3 80 46       0.00000000       0.00000000
  3 80 46       0.00000000       0.00000000
  3 80 45       0.00000000       0.00000000
  3 79 44       0.00000000       0.00000000
  3 79 44       0.00000000       0.00000000
  3 80 44       0.00000000       0.00000000
  3 80 44       0.00000000       0.00000000
  3 79 44       0.00000000       0.00000000
  3 79 47       0.00000000       0.00000000
  3 80 46       0.00000000       0.00000000
  3 80 46       0.00000000       0.00000000
  3 80 46       0.00000000       0.00000000
  3 80 47       0.00000000       0.00000000
  3 80 46       0.00000000       0.00000000
  3 74 46       0.00000000       0.00000000
  3 75 45       0.00000000       0.00000000
  3 77 53       0.00000000       0.00000000
  3 78 53       0.00000000       0.00000000
  3 77 53       0.00000000       0.00000000
  3 77 53       0.00000000       0.00000000
  3 77 53       0.00000000       0.00000000
  3 78 53       0.00000000       0.00000000
  3 78 53       0.00000000       0.00000000
  3 78 54       0.00000000       0.00000000
  3 78 53       0.00000000       0.00000000
  3 78 53       0.00000000       0.00000000
  3 78 53       0.00000000       0.00000000
  3 78 53       0.00000000       0.00000000
  3 78 53       0.00000000       0.00000000
  3 78 53       0.00000000       0.00000000
  3 78 54       0.00000000       0.00000000
  3 78 53       0.00000000       0.00000000
  3 77 53       0.00000000       0.00000000
  3 77 53       0.00000000       0.00000000
  3 78 52       0.00000000       0.00000000
  3 71 53       0.00000000       0.00000000
  3 70 53       0.00000000       0.00000000
  3 70 53       0.00000000       0.00000000
  3 77 46       0.00000000       0.00000000
  3 77 46       0.00000000       0.00000000
  3 77 46       0.00000000       0.00000000
  3 77 56       0.00000000       0.00000000
  3 77 56       0.00000000       0.00000000
  3 77 56       0.00000000       0.00000000
  3 77 56       0.00000000       0.00000000
  3 77 56       0.00000000       0.00000000
  3 77 56       0.00000000       0.00000000
  3 77 53       0.00000000       0.00000000
  3 77 53       0.00000000       0.00000000
  3 77 53       0.00000000       0.00000000
  3 70 56       0.00000000       0.00000000
  3 77 52       0.00000000       0.00000000
  3 77 53       0.00000000       0.00000000
  3 78 54       0.00000000       0.00000000
  3 78 54       0.00000000       0.00000000
  3 78 53       0.00000000       0.00000000
  3 78 53       0.00000000       0.00000000
  3 78 57       0.00000000       0.00000000
  3 72 54       0.00000000       0.00000000
  3 79 49       0.00000000       0.00000000
  3 73 52       0.00000000       0.00000000
  3 79 46       0.00000000       0.00000000
  3 78 46       0.00000000       0.00000000
  3 76 46       0.00000000       0.00000000
  3 74 46       0.00000000       0.00000000
  3 74 46       0.00000000       0.00000000
  3 75 46       0.00000000       0.00000000
  3 78 47       0.00000000       0.00000000
  3 79 48       0.00000000       0.00000000
  3 78 47       0.00000000       0.00000000
  3 80 47       0.00000000       0.00000000
  3 80 47       0.00000000       0.00000000
  3 80 47       0.00000000       0.00000000
  3 80 45       0.00000000       0.00000000
  3 79 45       0.00000000       0.00000000
  3 79 45       0.00000000       0.00000000
  3 79 44       0.00000000       0.00000000