# File generated by Flopy version 3.3.7 on 04/18/2023 at 17:35:14.
BEGIN Options
  PRINT_INPUT
  PRINT_FLOWS
  TS6  FILEIN  secp_mf6_chd.ts
END Options

BEGIN Dimensions
  MAXBOUND  18647
END Dimensions

BEGIN PERIOD  1
  2 38 8  chts_l2_r38_c8
  2 39 7  chts_l2_r39_c7
  2 39 8  chts_l2_r39_c8
  2 40 7  chts_l2_r40_c7
  2 41 6  chts_l2_r41_c6
  2 41 7  chts_l2_r41_c7
  2 42 6  chts_l2_r42_c6
  2 43 5  chts_l2_r43_c5
  2 43 6  chts_l2_r43_c6
  2 44 4  chts_l2_r44_c4
  2 44 5  chts_l2_r44_c5
  2 45 3  chts_l2_r45_c3
  2 45 4  chts_l2_r45_c4
  2 46 3  chts_l2_r46_c3
  2 47 3  chts_l2_r47_c3
  2 48 3  chts_l2_r48_c3
  2 49 3  chts_l2_r49_c3
  2 50 3  chts_l2_r50_c3
  2 50 4  chts_l2_r50_c4
  2 50 5  chts_l2_r50_c5
  2 51 5  chts_l2_r51_c5
  2 52 5  chts_l2_r52_c5
  2 52 6  chts_l2_r52_c6
  2 53 6  chts_l2_r53_c6
  2 53 7  chts_l2_r53_c7
  2 54 7  chts_l2_r54_c7
  2 54 8  chts_l2_r54_c8
  2 55 8  chts_l2_r55_c8
  2 56 8  chts_l2_r56_c8
  2 57 8  chts_l2_r57_c8
  2 57 9  chts_l2_r57_c9
  2 58 9  chts_l2_r58_c9
  2 58 10  chts_l2_r58_c10
  2 59 10  chts_l2_r59_c10
  2 60 10  chts_l2_r60_c10
  2 61 10  chts_l2_r61_c10
  2 62 10  chts_l2_r62_c10
  2 63 10  chts_l2_r63_c10
  2 64 10  chts_l2_r64_c10
  2 64 11  chts_l2_r64_c11
  2 65 11  chts_l2_r65_c11
  2 66 11  chts_l2_r66_c11
  2 67 11  chts_l2_r67_c11
  2 68 11  chts_l2_r68_c11
  2 69 11  chts_l2_r69_c11
  2 70 11  chts_l2_r70_c11
  2 71 11  chts_l2_r71_c11
  2 72 11  chts_l2_r72_c11
  2 73 11  chts_l2_r73_c11
  2 74 11  chts_l2_r74_c11
  2 74 12  chts_l2_r74_c12
  2 75 11  chts_l2_r75_c11
  2 75 12  chts_l2_r75_c12
  2 76 11  chts_l2_r76_c11
  2 77 11  chts_l2_r77_c11
  2 78 11  chts_l2_r78_c11
  2 79 11  chts_l2_r79_c11
  2 80 10  chts_l2_r80_c10
  2 80 11  chts_l2_r80_c11
  2 81 10  chts_l2_r81_c10
  2 82 10  chts_l2_r82_c10
  2 83 10  chts_l2_r83_c10
  2 84 10  chts_l2_r84_c10
  2 84 11  chts_l2_r84_c11
  2 85 11  chts_l2_r85_c11
  2 86 11  chts_l2_r86_c11
  2 86 12  chts_l2_r86_c12
  2 87 12  chts_l2_r87_c12
  2 87 13  chts_l2_r87_c13
  2 88 13  chts_l2_r88_c13
  2 89 13  chts_l2_r89_c13
  2 89 14  chts_l2_r89_c14
  2 90 14  chts_l2_r90_c14
  2 91 14  chts_l2_r91_c14
  2 91 15  chts_l2_r91_c15
  2 92 15  chts_l2_r92_c15
  2 93 15  chts_l2_r93_c15
  2 93 16  chts_l2_r93_c16
  2 94 16  chts_l2_r94_c16
  2 95 16  chts_l2_r95_c16
  2 96 16  chts_l2_r96_c16
  2 96 17  chts_l2_r96_c17
  2 97 17  chts_l2_r97_c17
  2 98 17  chts_l2_r98_c17
  2 98 18  chts_l2_r98_c18
  2 99 18  chts_l2_r99_c18
  2 100 18  chts_l2_r100_c18
  2 100 19  chts_l2_r100_c19
  2 101 19  chts_l2_r101_c19
  2 101 20  chts_l2_r101_c20
  2 102 20  chts_l2_r102_c20
  2 103 20  chts_l2_r103_c20
  2 103 21  chts_l2_r103_c21
  3 9 15  chts_l3_r9_c15
  3 10 15  chts_l3_r10_c15
  3 11 15  chts_l3_r11_c15
  3 12 15  chts_l3_r12_c15
  3 13 15  chts_l3_r13_c15
  3 13 238  chts_l3_r13_c238
  3 13 239  chts_l3_r13_c239
  3 14 15  chts_l3_r14_c15
  3 14 238  chts_l3_r14_c238
  3 14 239  chts_l3_r14_c239
  3 15 14  chts_l3_r15_c14
  3 15 15  chts_l3_r15_c15
  3 15 239  chts_l3_r15_c239
  3 16 14  chts_l3_r16_c14
  3 16 240  chts_l3_r16_c240
  3 17 14  chts_l3_r17_c14
  3 17 241  chts_l3_r17_c241
  3 18 14  chts_l3_r18_c14
  3 18 241  chts_l3_r18_c241
  3 18 243  chts_l3_r18_c243
  3 19 14  chts_l3_r19_c14
  3 19 243  chts_l3_r19_c243
  3 20 13  chts_l3_r20_c13
  3 20 14  chts_l3_r20_c14
  3 20 243  chts_l3_r20_c243
  3 21 12  chts_l3_r21_c12
  3 21 13  chts_l3_r21_c13
  3 21 243  chts_l3_r21_c243
  3 22 12  chts_l3_r22_c12
  3 22 243  chts_l3_r22_c243
  3 23 11  chts_l3_r23_c11
  3 23 12  chts_l3_r23_c12
  3 23 244  chts_l3_r23_c244
  3 24 11  chts_l3_r24_c11
  3 24 245  chts_l3_r24_c245
  3 25 10  chts_l3_r25_c10
  3 25 11  chts_l3_r25_c11
  3 26 10  chts_l3_r26_c10
  3 26 11  chts_l3_r26_c11
  3 26 246  chts_l3_r26_c246
  3 27 9  chts_l3_r27_c9
  3 27 10  chts_l3_r27_c10
  3 27 247  chts_l3_r27_c247
  3 28 9  chts_l3_r28_c9
  3 28 248  chts_l3_r28_c248
  3 29 8  chts_l3_r29_c8
  3 29 9  chts_l3_r29_c9
  3 29 247  chts_l3_r29_c247
  3 30 8  chts_l3_r30_c8
  3 31 8  chts_l3_r31_c8
  3 32 7  chts_l3_r32_c7
  3 32 8  chts_l3_r32_c8
  3 33 8  chts_l3_r33_c8
  3 34 8  chts_l3_r34_c8
  3 35 8  chts_l3_r35_c8
  3 35 247  chts_l3_r35_c247
  3 36 7  chts_l3_r36_c7
  3 36 247  chts_l3_r36_c247
  3 37 7  chts_l3_r37_c7
  3 37 8  chts_l3_r37_c8
  3 37 247  chts_l3_r37_c247
  3 38 8  chts_l3_r38_c8
  3 38 247  chts_l3_r38_c247
  3 39 7  chts_l3_r39_c7
  3 39 8  chts_l3_r39_c8
  3 39 248  chts_l3_r39_c248
  3 40 7  chts_l3_r40_c7
  3 40 251  chts_l3_r40_c251
  3 40 252  chts_l3_r40_c252
  3 41 6  chts_l3_r41_c6
  3 41 7  chts_l3_r41_c7
  3 41 253  chts_l3_r41_c253
  3 42 6  chts_l3_r42_c6
  3 42 254  chts_l3_r42_c254
  3 43 5  chts_l3_r43_c5
  3 43 6  chts_l3_r43_c6
  3 43 255  chts_l3_r43_c255
  3 43 256  chts_l3_r43_c256
  3 44 4  chts_l3_r44_c4
  3 44 5  chts_l3_r44_c5
  3 44 257  chts_l3_r44_c257
  3 45 3  chts_l3_r45_c3
  3 45 4  chts_l3_r45_c4
  3 45 258  chts_l3_r45_c258
  3 46 3  chts_l3_r46_c3
  3 46 259  chts_l3_r46_c259
  3 47 3  chts_l3_r47_c3
  3 47 260  chts_l3_r47_c260
  3 48 3  chts_l3_r48_c3
  3 49 3  chts_l3_r49_c3
  3 50 3  chts_l3_r50_c3
  3 50 4  chts_l3_r50_c4
  3 50 5  chts_l3_r50_c5
  3 51 5  chts_l3_r51_c5
  3 52 5  chts_l3_r52_c5
  3 52 6  chts_l3_r52_c6
  3 53 6  chts_l3_r53_c6
  3 53 7  chts_l3_r53_c7
  3 54 7  chts_l3_r54_c7
  3 54 8  chts_l3_r54_c8
  3 55 8  chts_l3_r55_c8
  3 56 8  chts_l3_r56_c8
  3 57 8  chts_l3_r57_c8
  3 57 9  chts_l3_r57_c9
  3 58 9  chts_l3_r58_c9
  3 58 10  chts_l3_r58_c10
  3 59 10  chts_l3_r59_c10
  3 60 10  chts_l3_r60_c10
  3 61 10  chts_l3_r61_c10
  3 62 10  chts_l3_r62_c10
  3 63 10  chts_l3_r63_c10
  3 64 10  chts_l3_r64_c10
  3 64 11  chts_l3_r64_c11
  3 65 11  chts_l3_r65_c11
  3 66 11  chts_l3_r66_c11
  3 67 11  chts_l3_r67_c11
  3 68 11  chts_l3_r68_c11
  3 69 11  chts_l3_r69_c11
  3 70 11  chts_l3_r70_c11
  3 71 11  chts_l3_r71_c11
  3 72 11  chts_l3_r72_c11
  3 73 11  chts_l3_r73_c11
  3 74 11  chts_l3_r74_c11
  3 74 12  chts_l3_r74_c12
  3 75 11  chts_l3_r75_c11
  3 75 12  chts_l3_r75_c12
  3 76 11  chts_l3_r76_c11
  3 77 11  chts_l3_r77_c11
  3 78 11  chts_l3_r78_c11
  3 79 11  chts_l3_r79_c11
  3 80 10  chts_l3_r80_c10
  3 80 11  chts_l3_r80_c11
  3 81 10  chts_l3_r81_c10
  3 82 10  chts_l3_r82_c10
  3 83 10  chts_l3_r83_c10
  3 84 10  chts_l3_r84_c10
  3 84 11  chts_l3_r84_c11
  3 85 11  chts_l3_r85_c11
  3 86 11  chts_l3_r86_c11
  3 86 12  chts_l3_r86_c12
  3 87 12  chts_l3_r87_c12
  3 87 13  chts_l3_r87_c13
  3 88 13  chts_l3_r88_c13
  3 89 13  chts_l3_r89_c13
  3 89 14  chts_l3_r89_c14
  3 90 14  chts_l3_r90_c14
  3 91 14  chts_l3_r91_c14
  3 91 15  chts_l3_r91_c15
  3 92 15  chts_l3_r92_c15
  3 93 15  chts_l3_r93_c15
  3 93 16  chts_l3_r93_c16
  3 94 16  chts_l3_r94_c16
  3 95 16  chts_l3_r95_c16
  3 96 16  chts_l3_r96_c16
  3 96 17  chts_l3_r96_c17
  3 97 17  chts_l3_r97_c17
  4 10 238  chts_l4_r10_c238
  4 10 239  chts_l4_r10_c239
  4 11 238  chts_l4_r11_c238
  4 11 239  chts_l4_r11_c239
  4 12 239  chts_l4_r12_c239
  4 12 240  chts_l4_r12_c240
  4 13 238  chts_l4_r13_c238
  4 13 239  chts_l4_r13_c239
  4 14 239  chts_l4_r14_c239
  4 15 239  chts_l4_r15_c239
  4 15 240  chts_l4_r15_c240
  4 16 240  chts_l4_r16_c240
  4 16 241  chts_l4_r16_c241
  4 17 241  chts_l4_r17_c241
  4 17 242  chts_l4_r17_c242
  4 18 241  chts_l4_r18_c241
  4 18 242  chts_l4_r18_c242
  4 18 243  chts_l4_r18_c243
  4 19 14  chts_l4_r19_c14
  4 19 243  chts_l4_r19_c243
  4 20 13  chts_l4_r20_c13
  4 20 14  chts_l4_r20_c14
  4 20 243  chts_l4_r20_c243
  4 21 12  chts_l4_r21_c12
  4 21 13  chts_l4_r21_c13
  4 21 243  chts_l4_r21_c243
  4 22 12  chts_l4_r22_c12
  4 22 243  chts_l4_r22_c243
  4 22 244  chts_l4_r22_c244
  4 23 11  chts_l4_r23_c11
  4 23 12  chts_l4_r23_c12
  4 23 244  chts_l4_r23_c244
  4 23 245  chts_l4_r23_c245
  4 24 11  chts_l4_r24_c11
  4 24 245  chts_l4_r24_c245
  4 24 246  chts_l4_r24_c246
  4 25 10  chts_l4_r25_c10
  4 25 11  chts_l4_r25_c11
  4 25 246  chts_l4_r25_c246
  4 26 10  chts_l4_r26_c10
  4 26 11  chts_l4_r26_c11
  4 26 246  chts_l4_r26_c246
  4 26 247  chts_l4_r26_c247
  4 26 248  chts_l4_r26_c248
  4 27 9  chts_l4_r27_c9
  4 27 10  chts_l4_r27_c10
  4 27 248  chts_l4_r27_c248
  4 28 9  chts_l4_r28_c9
  4 28 248  chts_l4_r28_c248
  4 29 8  chts_l4_r29_c8
  4 29 9  chts_l4_r29_c9
  4 29 247  chts_l4_r29_c247
  4 29 248  chts_l4_r29_c248
  4 30 8  chts_l4_r30_c8
  4 30 247  chts_l4_r30_c247
  4 31 8  chts_l4_r31_c8
  4 31 247  chts_l4_r31_c247
  4 32 7  chts_l4_r32_c7
  4 32 8  chts_l4_r32_c8
  4 32 247  chts_l4_r32_c247
  4 33 8  chts_l4_r33_c8
  4 33 247  chts_l4_r33_c247
  4 34 8  chts_l4_r34_c8
  4 34 247  chts_l4_r34_c247
  4 35 8  chts_l4_r35_c8
  4 35 247  chts_l4_r35_c247
  4 36 7  chts_l4_r36_c7
  4 36 8  chts_l4_r36_c8
  4 36 247  chts_l4_r36_c247
  4 37 7  chts_l4_r37_c7
  4 37 8  chts_l4_r37_c8
  4 37 247  chts_l4_r37_c247
  4 38 8  chts_l4_r38_c8
  4 38 247  chts_l4_r38_c247
  4 38 248  chts_l4_r38_c248
  4 39 7  chts_l4_r39_c7
  4 39 8  chts_l4_r39_c8
  4 39 248  chts_l4_r39_c248
  4 39 249  chts_l4_r39_c249
  4 39 250  chts_l4_r39_c250
  4 39 251  chts_l4_r39_c251
  4 40 7  chts_l4_r40_c7
  4 40 251  chts_l4_r40_c251
  4 40 252  chts_l4_r40_c252
  4 41 6  chts_l4_r41_c6
  4 41 7  chts_l4_r41_c7
  4 41 252  chts_l4_r41_c252
  4 41 253  chts_l4_r41_c253
  4 42 6  chts_l4_r42_c6
  4 42 253  chts_l4_r42_c253
  4 42 254  chts_l4_r42_c254
  4 42 255  chts_l4_r42_c255
  4 43 5  chts_l4_r43_c5
  4 43 6  chts_l4_r43_c6
  4 43 255  chts_l4_r43_c255
  4 43 256  chts_l4_r43_c256
  4 44 4  chts_l4_r44_c4
  4 44 5  chts_l4_r44_c5
  4 44 256  chts_l4_r44_c256
  4 44 257  chts_l4_r44_c257
  4 44 258  chts_l4_r44_c258
  4 45 3  chts_l4_r45_c3
  4 45 4  chts_l4_r45_c4
  4 45 258  chts_l4_r45_c258
  4 45 259  chts_l4_r45_c259
  4 45 260  chts_l4_r45_c260
  4 46 3  chts_l4_r46_c3
  4 46 260  chts_l4_r46_c260
  4 46 261  chts_l4_r46_c261
  4 47 3  chts_l4_r47_c3
  4 48 3  chts_l4_r48_c3
  4 49 3  chts_l4_r49_c3
  4 50 3  chts_l4_r50_c3
  4 50 4  chts_l4_r50_c4
  4 50 5  chts_l4_r50_c5
  4 51 5  chts_l4_r51_c5
  4 52 5  chts_l4_r52_c5
  4 52 6  chts_l4_r52_c6
  4 53 6  chts_l4_r53_c6
  4 54 6  chts_l4_r54_c6
  4 54 7  chts_l4_r54_c7
  4 54 8  chts_l4_r54_c8
  4 55 8  chts_l4_r55_c8
  4 56 8  chts_l4_r56_c8
  4 57 8  chts_l4_r57_c8
  4 57 9  chts_l4_r57_c9
  4 58 9  chts_l4_r58_c9
  4 58 10  chts_l4_r58_c10
  4 59 10  chts_l4_r59_c10
  4 60 10  chts_l4_r60_c10
  4 61 10  chts_l4_r61_c10
  4 62 10  chts_l4_r62_c10
  4 63 10  chts_l4_r63_c10
  4 64 10  chts_l4_r64_c10
  4 64 11  chts_l4_r64_c11
  4 65 11  chts_l4_r65_c11
  4 66 11  chts_l4_r66_c11
  4 67 11  chts_l4_r67_c11
  4 68 11  chts_l4_r68_c11
  4 69 11  chts_l4_r69_c11
  4 70 11  chts_l4_r70_c11
  4 71 11  chts_l4_r71_c11
  4 72 11  chts_l4_r72_c11
  4 73 11  chts_l4_r73_c11
  4 74 11  chts_l4_r74_c11
  4 74 12  chts_l4_r74_c12
  4 75 11  chts_l4_r75_c11
  4 75 12  chts_l4_r75_c12
  4 76 11  chts_l4_r76_c11
  4 77 11  chts_l4_r77_c11
  4 78 11  chts_l4_r78_c11
  4 79 11  chts_l4_r79_c11
  4 80 10  chts_l4_r80_c10
  4 80 11  chts_l4_r80_c11
  4 81 10  chts_l4_r81_c10
  4 82 10  chts_l4_r82_c10
  4 83 10  chts_l4_r83_c10
  4 84 10  chts_l4_r84_c10
  4 84 11  chts_l4_r84_c11
  4 85 11  chts_l4_r85_c11
  4 86 11  chts_l4_r86_c11
  4 86 12  chts_l4_r86_c12
  4 87 12  chts_l4_r87_c12
  4 87 13  chts_l4_r87_c13
  4 88 13  chts_l4_r88_c13
  4 88 14  chts_l4_r88_c14
  4 89 14  chts_l4_r89_c14
  4 90 14  chts_l4_r90_c14
  4 90 15  chts_l4_r90_c15
  4 90 16  chts_l4_r90_c16
  4 91 16  chts_l4_r91_c16
  4 91 17  chts_l4_r91_c17
  4 92 17  chts_l4_r92_c17
  4 92 18  chts_l4_r92_c18
  4 93 18  chts_l4_r93_c18
  4 93 19  chts_l4_r93_c19
  4 93 20  chts_l4_r93_c20
  4 94 20  chts_l4_r94_c20
  4 94 21  chts_l4_r94_c21
  4 95 21  chts_l4_r95_c21
  5 10 238  chts_l5_r10_c238
  5 10 239  chts_l5_r10_c239
  5 11 238  chts_l5_r11_c238
  5 11 239  chts_l5_r11_c239
  5 11 240  chts_l5_r11_c240
  5 12 238  chts_l5_r12_c238
  5 12 239  chts_l5_r12_c239
  5 12 240  chts_l5_r12_c240
  5 13 238  chts_l5_r13_c238
  5 13 239  chts_l5_r13_c239
  5 14 238  chts_l5_r14_c238
  5 14 239  chts_l5_r14_c239
  5 15 239  chts_l5_r15_c239
  5 15 240  chts_l5_r15_c240
  5 16 240  chts_l5_r16_c240
  5 16 241  chts_l5_r16_c241
  5 17 241  chts_l5_r17_c241
  5 17 242  chts_l5_r17_c242
  5 18 14  chts_l5_r18_c14
  5 18 241  chts_l5_r18_c241
  5 18 242  chts_l5_r18_c242
  5 18 243  chts_l5_r18_c243
  5 18 244  chts_l5_r18_c244
  5 19 14  chts_l5_r19_c14
  5 19 243  chts_l5_r19_c243
  5 19 244  chts_l5_r19_c244
  5 20 13  chts_l5_r20_c13
  5 20 14  chts_l5_r20_c14
  5 20 243  chts_l5_r20_c243
  5 21 12  chts_l5_r21_c12
  5 21 13  chts_l5_r21_c13
  5 21 243  chts_l5_r21_c243
  5 22 12  chts_l5_r22_c12
  5 22 243  chts_l5_r22_c243
  5 22 244  chts_l5_r22_c244
  5 23 11  chts_l5_r23_c11
  5 23 12  chts_l5_r23_c12
  5 23 244  chts_l5_r23_c244
  5 23 245  chts_l5_r23_c245
  5 24 11  chts_l5_r24_c11
  5 24 245  chts_l5_r24_c245
  5 24 246  chts_l5_r24_c246
  5 25 10  chts_l5_r25_c10
  5 25 11  chts_l5_r25_c11
  5 25 246  chts_l5_r25_c246
  5 26 10  chts_l5_r26_c10
  5 26 246  chts_l5_r26_c246
  5 26 247  chts_l5_r26_c247
  5 26 248  chts_l5_r26_c248
  5 27 9  chts_l5_r27_c9
  5 27 10  chts_l5_r27_c10
  5 27 246  chts_l5_r27_c246
  5 27 248  chts_l5_r27_c248
  5 28 9  chts_l5_r28_c9
  5 28 248  chts_l5_r28_c248
  5 29 8  chts_l5_r29_c8
  5 29 9  chts_l5_r29_c9
  5 29 247  chts_l5_r29_c247
  5 29 248  chts_l5_r29_c248
  5 30 8  chts_l5_r30_c8
  5 30 247  chts_l5_r30_c247
  5 31 8  chts_l5_r31_c8
  5 31 247  chts_l5_r31_c247
  5 32 8  chts_l5_r32_c8
  5 32 247  chts_l5_r32_c247
  5 33 8  chts_l5_r33_c8
  5 33 247  chts_l5_r33_c247
  5 34 8  chts_l5_r34_c8
  5 34 247  chts_l5_r34_c247
  5 35 8  chts_l5_r35_c8
  5 35 247  chts_l5_r35_c247
  5 36 7  chts_l5_r36_c7
  5 36 8  chts_l5_r36_c8
  5 36 247  chts_l5_r36_c247
  5 37 7  chts_l5_r37_c7
  5 37 8  chts_l5_r37_c8
  5 37 247  chts_l5_r37_c247
  5 38 8  chts_l5_r38_c8
  5 38 247  chts_l5_r38_c247
  5 38 248  chts_l5_r38_c248
  5 39 7  chts_l5_r39_c7
  5 39 8  chts_l5_r39_c8
  5 39 248  chts_l5_r39_c248
  5 39 249  chts_l5_r39_c249
  5 39 250  chts_l5_r39_c250
  5 39 251  chts_l5_r39_c251
  5 40 7  chts_l5_r40_c7
  5 40 251  chts_l5_r40_c251
  5 40 252  chts_l5_r40_c252
  5 41 6  chts_l5_r41_c6
  5 41 7  chts_l5_r41_c7
  5 41 252  chts_l5_r41_c252
  5 41 253  chts_l5_r41_c253
  5 42 5  chts_l5_r42_c5
  5 42 6  chts_l5_r42_c6
  5 42 253  chts_l5_r42_c253
  5 42 254  chts_l5_r42_c254
  5 42 255  chts_l5_r42_c255
  5 43 5  chts_l5_r43_c5
  5 43 255  chts_l5_r43_c255
  5 43 256  chts_l5_r43_c256
  5 44 4  chts_l5_r44_c4
  5 44 5  chts_l5_r44_c5
  5 44 256  chts_l5_r44_c256
  5 44 257  chts_l5_r44_c257
  5 44 258  chts_l5_r44_c258
  5 45 3  chts_l5_r45_c3
  5 45 4  chts_l5_r45_c4
  5 45 258  chts_l5_r45_c258
  5 45 259  chts_l5_r45_c259
  5 45 260  chts_l5_r45_c260
  5 46 3  chts_l5_r46_c3
  5 46 260  chts_l5_r46_c260
  5 46 261  chts_l5_r46_c261
  5 47 3  chts_l5_r47_c3
  5 48 3  chts_l5_r48_c3
  5 49 3  chts_l5_r49_c3
  5 50 3  chts_l5_r50_c3
  5 50 4  chts_l5_r50_c4
  5 50 5  chts_l5_r50_c5
  5 51 5  chts_l5_r51_c5
  5 52 5  chts_l5_r52_c5
  5 52 6  chts_l5_r52_c6
  5 53 6  chts_l5_r53_c6
  5 53 7  chts_l5_r53_c7
  5 54 7  chts_l5_r54_c7
  5 54 8  chts_l5_r54_c8
  5 55 8  chts_l5_r55_c8
  5 56 8  chts_l5_r56_c8
  5 56 9  chts_l5_r56_c9
  5 57 9  chts_l5_r57_c9
  5 58 9  chts_l5_r58_c9
  5 58 10  chts_l5_r58_c10
  5 59 10  chts_l5_r59_c10
  5 60 10  chts_l5_r60_c10
  5 61 10  chts_l5_r61_c10
  5 62 10  chts_l5_r62_c10
  5 63 10  chts_l5_r63_c10
  5 64 10  chts_l5_r64_c10
  5 64 11  chts_l5_r64_c11
  5 65 11  chts_l5_r65_c11
  5 66 11  chts_l5_r66_c11
  5 67 11  chts_l5_r67_c11
  5 68 11  chts_l5_r68_c11
  5 69 11  chts_l5_r69_c11
  5 70 11  chts_l5_r70_c11
  5 71 11  chts_l5_r71_c11
  5 72 11  chts_l5_r72_c11
  5 73 11  chts_l5_r73_c11
  5 74 11  chts_l5_r74_c11
  5 75 11  chts_l5_r75_c11
  5 75 12  chts_l5_r75_c12
  5 76 11  chts_l5_r76_c11
  5 77 11  chts_l5_r77_c11
  5 78 11  chts_l5_r78_c11
  5 79 11  chts_l5_r79_c11
  5 80 10  chts_l5_r80_c10
  5 80 11  chts_l5_r80_c11
  5 81 10  chts_l5_r81_c10
  5 82 10  chts_l5_r82_c10
  5 83 10  chts_l5_r83_c10
  5 84 10  chts_l5_r84_c10
  5 84 11  chts_l5_r84_c11
  5 85 11  chts_l5_r85_c11
  5 86 11  chts_l5_r86_c11
  5 86 12  chts_l5_r86_c12
  5 87 12  chts_l5_r87_c12
  5 87 13  chts_l5_r87_c13
  5 88 13  chts_l5_r88_c13
  5 88 14  chts_l5_r88_c14
  5 89 14  chts_l5_r89_c14
  5 90 14  chts_l5_r90_c14
  5 90 15  chts_l5_r90_c15
  5 90 16  chts_l5_r90_c16
  5 91 16  chts_l5_r91_c16
  5 91 17  chts_l5_r91_c17
  5 92 17  chts_l5_r92_c17
  5 92 18  chts_l5_r92_c18
  5 93 18  chts_l5_r93_c18
  5 93 19  chts_l5_r93_c19
  5 93 20  chts_l5_r93_c20
  5 94 20  chts_l5_r94_c20
  5 94 21  chts_l5_r94_c21
  5 95 21  chts_l5_r95_c21
  5 95 22  chts_l5_r95_c22
  5 95 23  chts_l5_r95_c23
  5 96 23  chts_l5_r96_c23
  5 96 24  chts_l5_r96_c24
  5 96 25  chts_l5_r96_c25
  5 96 26  chts_l5_r96_c26
  5 97 26  chts_l5_r97_c26
  5 97 27  chts_l5_r97_c27
  5 97 28  chts_l5_r97_c28
  5 97 29  chts_l5_r97_c29
  5 97 30  chts_l5_r97_c30
  5 97 31  chts_l5_r97_c31
  5 97 32  chts_l5_r97_c32
  5 97 33  chts_l5_r97_c33
  6 15 240  chts_l6_r15_c240
  6 16 240  chts_l6_r16_c240
  6 16 241  chts_l6_r16_c241
  6 17 241  chts_l6_r17_c241
  6 17 242  chts_l6_r17_c242
  6 18 241  chts_l6_r18_c241
  6 18 242  chts_l6_r18_c242
  6 18 243  chts_l6_r18_c243
  6 19 243  chts_l6_r19_c243
  6 19 244  chts_l6_r19_c244
  6 20 243  chts_l6_r20_c243
  6 21 243  chts_l6_r21_c243
  6 22 243  chts_l6_r22_c243
  6 22 244  chts_l6_r22_c244
  6 23 244  chts_l6_r23_c244
  6 23 245  chts_l6_r23_c245
  6 24 245  chts_l6_r24_c245
  6 24 246  chts_l6_r24_c246
  6 25 246  chts_l6_r25_c246
  6 26 246  chts_l6_r26_c246
  6 26 247  chts_l6_r26_c247
  6 27 247  chts_l6_r27_c247
  6 27 248  chts_l6_r27_c248
  6 28 248  chts_l6_r28_c248
  6 29 247  chts_l6_r29_c247
  6 29 248  chts_l6_r29_c248
  6 30 247  chts_l6_r30_c247
  6 31 247  chts_l6_r31_c247
  6 32 247  chts_l6_r32_c247
  6 33 247  chts_l6_r33_c247
  6 34 247  chts_l6_r34_c247
  6 35 247  chts_l6_r35_c247
  6 36 247  chts_l6_r36_c247
  6 37 247  chts_l6_r37_c247
  6 38 8  chts_l6_r38_c8
  6 38 247  chts_l6_r38_c247
  6 38 248  chts_l6_r38_c248
  6 39 8  chts_l6_r39_c8
  6 39 248  chts_l6_r39_c248
  6 39 249  chts_l6_r39_c249
  6 39 250  chts_l6_r39_c250
  6 39 251  chts_l6_r39_c251
  6 40 7  chts_l6_r40_c7
  6 40 8  chts_l6_r40_c8
  6 40 251  chts_l6_r40_c251
  6 40 252  chts_l6_r40_c252
  6 41 6  chts_l6_r41_c6
  6 41 7  chts_l6_r41_c7
  6 41 252  chts_l6_r41_c252
  6 41 253  chts_l6_r41_c253
  6 42 6  chts_l6_r42_c6
  6 42 253  chts_l6_r42_c253
  6 42 254  chts_l6_r42_c254
  6 42 255  chts_l6_r42_c255
  6 43 5  chts_l6_r43_c5
  6 43 6  chts_l6_r43_c6
  6 43 255  chts_l6_r43_c255
  6 43 256  chts_l6_r43_c256
  6 44 4  chts_l6_r44_c4
  6 44 5  chts_l6_r44_c5
  6 44 256  chts_l6_r44_c256
  6 44 257  chts_l6_r44_c257
  6 44 258  chts_l6_r44_c258
  6 45 3  chts_l6_r45_c3
  6 45 4  chts_l6_r45_c4
  6 45 258  chts_l6_r45_c258
  6 45 259  chts_l6_r45_c259
  6 45 260  chts_l6_r45_c260
  6 46 3  chts_l6_r46_c3
  6 46 260  chts_l6_r46_c260
  6 46 261  chts_l6_r46_c261
  6 47 3  chts_l6_r47_c3
  6 48 3  chts_l6_r48_c3
  6 49 3  chts_l6_r49_c3
  6 49 4  chts_l6_r49_c4
  6 50 3  chts_l6_r50_c3
  6 50 4  chts_l6_r50_c4
  6 50 5  chts_l6_r50_c5
  6 51 5  chts_l6_r51_c5
  6 52 5  chts_l6_r52_c5
  6 52 6  chts_l6_r52_c6
  6 53 6  chts_l6_r53_c6
  6 53 7  chts_l6_r53_c7
  6 54 7  chts_l6_r54_c7
  6 54 8  chts_l6_r54_c8
  6 55 8  chts_l6_r55_c8
  6 56 8  chts_l6_r56_c8
  6 57 8  chts_l6_r57_c8
  6 57 9  chts_l6_r57_c9
  6 58 9  chts_l6_r58_c9
  6 58 10  chts_l6_r58_c10
  6 59 10  chts_l6_r59_c10
  6 60 10  chts_l6_r60_c10
  6 61 10  chts_l6_r61_c10
  6 62 10  chts_l6_r62_c10
  6 63 10  chts_l6_r63_c10
  6 64 10  chts_l6_r64_c10
  6 64 11  chts_l6_r64_c11
  6 65 11  chts_l6_r65_c11
  6 66 11  chts_l6_r66_c11
  6 67 11  chts_l6_r67_c11
  6 68 11  chts_l6_r68_c11
  6 69 11  chts_l6_r69_c11
  6 70 11  chts_l6_r70_c11
  6 71 11  chts_l6_r71_c11
  6 72 11  chts_l6_r72_c11
  6 73 11  chts_l6_r73_c11
  6 74 11  chts_l6_r74_c11
  6 74 12  chts_l6_r74_c12
  6 75 11  chts_l6_r75_c11
  6 75 12  chts_l6_r75_c12
  6 76 11  chts_l6_r76_c11
  6 77 11  chts_l6_r77_c11
  6 78 11  chts_l6_r78_c11
  6 79 11  chts_l6_r79_c11
  6 80 10  chts_l6_r80_c10
  6 80 11  chts_l6_r80_c11
  6 81 10  chts_l6_r81_c10
  6 82 10  chts_l6_r82_c10
  6 83 10  chts_l6_r83_c10
  7 9 236  chts_l7_r9_c236
  7 9 237  chts_l7_r9_c237
  7 10 236  chts_l7_r10_c236
  7 10 237  chts_l7_r10_c237
  7 10 238  chts_l7_r10_c238
  7 11 238  chts_l7_r11_c238
  7 11 239  chts_l7_r11_c239
  7 12 238  chts_l7_r12_c238
  7 12 239  chts_l7_r12_c239
  7 12 240  chts_l7_r12_c240
  7 13 15  chts_l7_r13_c15
  7 13 238  chts_l7_r13_c238
  7 14 15  chts_l7_r14_c15
  7 14 238  chts_l7_r14_c238
  7 14 239  chts_l7_r14_c239
  7 15 14  chts_l7_r15_c14
  7 15 15  chts_l7_r15_c15
  7 15 239  chts_l7_r15_c239
  7 15 240  chts_l7_r15_c240
  7 16 14  chts_l7_r16_c14
  7 16 240  chts_l7_r16_c240
  7 16 241  chts_l7_r16_c241
  7 17 14  chts_l7_r17_c14
  7 17 241  chts_l7_r17_c241
  7 17 242  chts_l7_r17_c242
  7 18 14  chts_l7_r18_c14
  7 18 15  chts_l7_r18_c15
  7 18 241  chts_l7_r18_c241
  7 18 242  chts_l7_r18_c242
  7 18 243  chts_l7_r18_c243
  7 18 244  chts_l7_r18_c244
  7 19 14  chts_l7_r19_c14
  7 19 243  chts_l7_r19_c243
  7 19 244  chts_l7_r19_c244
  7 20 13  chts_l7_r20_c13
  7 20 14  chts_l7_r20_c14
  7 20 243  chts_l7_r20_c243
  7 21 12  chts_l7_r21_c12
  7 21 13  chts_l7_r21_c13
  7 21 243  chts_l7_r21_c243
  7 22 12  chts_l7_r22_c12
  7 22 243  chts_l7_r22_c243
  7 22 244  chts_l7_r22_c244
  7 23 11  chts_l7_r23_c11
  7 23 12  chts_l7_r23_c12
  7 23 244  chts_l7_r23_c244
  7 23 245  chts_l7_r23_c245
  7 24 11  chts_l7_r24_c11
  7 24 245  chts_l7_r24_c245
  7 24 246  chts_l7_r24_c246
  7 25 10  chts_l7_r25_c10
  7 25 11  chts_l7_r25_c11
  7 25 246  chts_l7_r25_c246
  7 26 10  chts_l7_r26_c10
  7 26 11  chts_l7_r26_c11
  7 26 246  chts_l7_r26_c246
  7 26 247  chts_l7_r26_c247
  7 27 9  chts_l7_r27_c9
  7 27 10  chts_l7_r27_c10
  7 27 247  chts_l7_r27_c247
  7 27 248  chts_l7_r27_c248
  7 28 9  chts_l7_r28_c9
  7 28 248  chts_l7_r28_c248
  7 29 8  chts_l7_r29_c8
  7 29 9  chts_l7_r29_c9
  7 29 247  chts_l7_r29_c247
  7 29 248  chts_l7_r29_c248
  7 30 8  chts_l7_r30_c8
  7 30 247  chts_l7_r30_c247
  7 31 8  chts_l7_r31_c8
  7 31 247  chts_l7_r31_c247
  7 32 7  chts_l7_r32_c7
  7 32 8  chts_l7_r32_c8
  7 32 247  chts_l7_r32_c247
  7 33 8  chts_l7_r33_c8
  7 33 247  chts_l7_r33_c247
  7 34 8  chts_l7_r34_c8
  7 34 247  chts_l7_r34_c247
  7 35 8  chts_l7_r35_c8
  7 35 247  chts_l7_r35_c247
  7 36 7  chts_l7_r36_c7
  7 36 8  chts_l7_r36_c8
  7 36 247  chts_l7_r36_c247
  7 37 7  chts_l7_r37_c7
  7 37 8  chts_l7_r37_c8
  7 37 247  chts_l7_r37_c247
  7 38 8  chts_l7_r38_c8
  7 38 247  chts_l7_r38_c247
  7 38 248  chts_l7_r38_c248
  7 39 7  chts_l7_r39_c7
  7 39 8  chts_l7_r39_c8
  7 39 248  chts_l7_r39_c248
  7 39 249  chts_l7_r39_c249
  7 39 250  chts_l7_r39_c250
  7 39 251  chts_l7_r39_c251
  7 40 7  chts_l7_r40_c7
  7 40 251  chts_l7_r40_c251
  7 40 252  chts_l7_r40_c252
  7 41 6  chts_l7_r41_c6
  7 41 7  chts_l7_r41_c7
  7 41 252  chts_l7_r41_c252
  7 41 253  chts_l7_r41_c253
  7 42 6  chts_l7_r42_c6
  7 42 253  chts_l7_r42_c253
  7 42 254  chts_l7_r42_c254
  7 42 255  chts_l7_r42_c255
  7 43 5  chts_l7_r43_c5
  7 43 6  chts_l7_r43_c6
  7 43 255  chts_l7_r43_c255
  7 43 256  chts_l7_r43_c256
  7 44 4  chts_l7_r44_c4
  7 44 5  chts_l7_r44_c5
  7 44 256  chts_l7_r44_c256
  7 44 257  chts_l7_r44_c257
  7 44 258  chts_l7_r44_c258
  7 45 3  chts_l7_r45_c3
  7 45 4  chts_l7_r45_c4
  7 45 258  chts_l7_r45_c258
  7 45 259  chts_l7_r45_c259
  7 45 260  chts_l7_r45_c260
  7 46 3  chts_l7_r46_c3
  7 46 260  chts_l7_r46_c260
  7 46 261  chts_l7_r46_c261
  7 47 3  chts_l7_r47_c3
  7 48 3  chts_l7_r48_c3
  7 49 3  chts_l7_r49_c3
  7 50 3  chts_l7_r50_c3
  7 50 4  chts_l7_r50_c4
  7 50 5  chts_l7_r50_c5
  7 51 5  chts_l7_r51_c5
  7 51 6  chts_l7_r51_c6
  7 52 6  chts_l7_r52_c6
  7 53 6  chts_l7_r53_c6
  7 54 6  chts_l7_r54_c6
  7 54 7  chts_l7_r54_c7
  7 54 8  chts_l7_r54_c8
  7 55 8  chts_l7_r55_c8
  7 56 8  chts_l7_r56_c8
  7 57 8  chts_l7_r57_c8
  7 57 9  chts_l7_r57_c9
  7 58 9  chts_l7_r58_c9
  7 58 10  chts_l7_r58_c10
  7 59 10  chts_l7_r59_c10
  7 60 10  chts_l7_r60_c10
  7 61 10  chts_l7_r61_c10
  7 62 10  chts_l7_r62_c10
  7 63 10  chts_l7_r63_c10
  7 64 10  chts_l7_r64_c10
  7 64 11  chts_l7_r64_c11
  7 65 11  chts_l7_r65_c11
  7 66 11  chts_l7_r66_c11
  7 67 11  chts_l7_r67_c11
  7 68 11  chts_l7_r68_c11
  7 69 11  chts_l7_r69_c11
  7 70 11  chts_l7_r70_c11
  7 71 11  chts_l7_r71_c11
  7 72 11  chts_l7_r72_c11
  7 73 11  chts_l7_r73_c11
  7 74 11  chts_l7_r74_c11
  7 74 12  chts_l7_r74_c12
  7 75 11  chts_l7_r75_c11
  7 75 12  chts_l7_r75_c12
  7 76 11  chts_l7_r76_c11
  7 77 11  chts_l7_r77_c11
  7 78 11  chts_l7_r78_c11
  7 79 11  chts_l7_r79_c11
  7 80 10  chts_l7_r80_c10
  7 80 11  chts_l7_r80_c11
  7 81 10  chts_l7_r81_c10
  7 82 10  chts_l7_r82_c10
  7 83 10  chts_l7_r83_c10
  8 4 238  chts_l8_r4_c238
  8 5 239  chts_l8_r5_c239
  8 6 239  chts_l8_r6_c239
  8 7 238  chts_l8_r7_c238
  8 9 237  chts_l8_r9_c237
  8 10 237  chts_l8_r10_c237
  8 11 239  chts_l8_r11_c239
  8 12 239  chts_l8_r12_c239
  8 13 238  chts_l8_r13_c238
  8 14 238  chts_l8_r14_c238
  8 15 239  chts_l8_r15_c239
  8 16 241  chts_l8_r16_c241
  8 17 241  chts_l8_r17_c241
  8 18 241  chts_l8_r18_c241
  8 18 242  chts_l8_r18_c242
  8 19 243  chts_l8_r19_c243
  8 20 243  chts_l8_r20_c243
  8 21 243  chts_l8_r21_c243
  8 22 243  chts_l8_r22_c243
  8 23 244  chts_l8_r23_c244
  8 24 11  chts_l8_r24_c11
  8 24 245  chts_l8_r24_c245
  8 25 10  chts_l8_r25_c10
  8 25 11  chts_l8_r25_c11
  8 26 10  chts_l8_r26_c10
  8 26 246  chts_l8_r26_c246
  8 27 9  chts_l8_r27_c9
  8 27 10  chts_l8_r27_c10
  8 27 247  chts_l8_r27_c247
  8 28 9  chts_l8_r28_c9
  8 28 248  chts_l8_r28_c248
  8 29 8  chts_l8_r29_c8
  8 29 9  chts_l8_r29_c9
  8 29 247  chts_l8_r29_c247
  8 30 8  chts_l8_r30_c8
  8 31 7  chts_l8_r31_c7
  8 31 8  chts_l8_r31_c8
  8 32 7  chts_l8_r32_c7
  8 33 7  chts_l8_r33_c7
  8 33 8  chts_l8_r33_c8
  8 34 8  chts_l8_r34_c8
  8 35 8  chts_l8_r35_c8
  8 35 247  chts_l8_r35_c247
  8 36 7  chts_l8_r36_c7
  8 36 8  chts_l8_r36_c8
  8 36 247  chts_l8_r36_c247
  8 37 7  chts_l8_r37_c7
  8 37 8  chts_l8_r37_c8
  8 37 247  chts_l8_r37_c247
  8 38 8  chts_l8_r38_c8
  8 38 247  chts_l8_r38_c247
  8 39 7  chts_l8_r39_c7
  8 39 8  chts_l8_r39_c8
  8 39 248  chts_l8_r39_c248
  8 39 249  chts_l8_r39_c249
  8 40 7  chts_l8_r40_c7
  8 40 251  chts_l8_r40_c251
  8 40 252  chts_l8_r40_c252
  8 41 6  chts_l8_r41_c6
  8 41 7  chts_l8_r41_c7
  8 41 253  chts_l8_r41_c253
  8 42 6  chts_l8_r42_c6
  8 42 254  chts_l8_r42_c254
  8 43 4  chts_l8_r43_c4
  8 43 5  chts_l8_r43_c5
  8 43 6  chts_l8_r43_c6
  8 43 255  chts_l8_r43_c255
  8 44 4  chts_l8_r44_c4
  8 44 257  chts_l8_r44_c257
  8 45 3  chts_l8_r45_c3
  8 45 4  chts_l8_r45_c4
  8 45 258  chts_l8_r45_c258
  8 46 3  chts_l8_r46_c3
  8 46 260  chts_l8_r46_c260
  8 46 261  chts_l8_r46_c261
  8 47 3  chts_l8_r47_c3
  8 47 264  chts_l8_r47_c264
  8 48 2  chts_l8_r48_c2
  8 48 3  chts_l8_r48_c3
  8 49 2  chts_l8_r49_c2
  8 49 3  chts_l8_r49_c3
  8 50 3  chts_l8_r50_c3
  9 5 239  chts_l9_r5_c239
  9 6 239  chts_l9_r6_c239
  9 7 238  chts_l9_r7_c238
  9 9 15  chts_l9_r9_c15
  9 9 237  chts_l9_r9_c237
  9 10 15  chts_l9_r10_c15
  9 11 15  chts_l9_r11_c15
  9 11 238  chts_l9_r11_c238
  9 11 239  chts_l9_r11_c239
  9 12 15  chts_l9_r12_c15
  9 12 238  chts_l9_r12_c238
  9 13 15  chts_l9_r13_c15
  9 14 15  chts_l9_r14_c15
  9 14 239  chts_l9_r14_c239
  9 15 14  chts_l9_r15_c14
  9 15 15  chts_l9_r15_c15
  9 15 240  chts_l9_r15_c240
  9 16 14  chts_l9_r16_c14
  9 16 241  chts_l9_r16_c241
  9 17 14  chts_l9_r17_c14
  9 18 14  chts_l9_r18_c14
  9 18 15  chts_l9_r18_c15
  9 18 242  chts_l9_r18_c242
  9 19 14  chts_l9_r19_c14
  9 19 243  chts_l9_r19_c243
  9 20 13  chts_l9_r20_c13
  9 20 14  chts_l9_r20_c14
  9 20 243  chts_l9_r20_c243
  9 21 12  chts_l9_r21_c12
  9 21 13  chts_l9_r21_c13
  9 21 243  chts_l9_r21_c243
  9 22 12  chts_l9_r22_c12
  9 22 243  chts_l9_r22_c243
  9 23 11  chts_l9_r23_c11
  9 23 12  chts_l9_r23_c12
  9 23 244  chts_l9_r23_c244
  9 24 11  chts_l9_r24_c11
  9 24 245  chts_l9_r24_c245
  9 25 10  chts_l9_r25_c10
  9 25 11  chts_l9_r25_c11
  9 26 10  chts_l9_r26_c10
  9 26 11  chts_l9_r26_c11
  9 26 246  chts_l9_r26_c246
  9 27 9  chts_l9_r27_c9
  9 27 10  chts_l9_r27_c10
  9 27 247  chts_l9_r27_c247
  9 28 9  chts_l9_r28_c9
  9 28 247  chts_l9_r28_c247
  9 29 8  chts_l9_r29_c8
  9 29 9  chts_l9_r29_c9
  9 29 247  chts_l9_r29_c247
  9 30 8  chts_l9_r30_c8
  9 30 247  chts_l9_r30_c247
  9 31 8  chts_l9_r31_c8
  9 32 7  chts_l9_r32_c7
  9 32 8  chts_l9_r32_c8
  9 33 8  chts_l9_r33_c8
  9 34 8  chts_l9_r34_c8
  9 34 247  chts_l9_r34_c247
  9 35 8  chts_l9_r35_c8
  9 35 247  chts_l9_r35_c247
  9 36 7  chts_l9_r36_c7
  9 36 247  chts_l9_r36_c247
  9 37 7  chts_l9_r37_c7
  9 37 8  chts_l9_r37_c8
  9 37 247  chts_l9_r37_c247
  9 38 8  chts_l9_r38_c8
  9 38 248  chts_l9_r38_c248
  9 39 7  chts_l9_r39_c7
  9 39 8  chts_l9_r39_c8
  9 39 249  chts_l9_r39_c249
  9 40 7  chts_l9_r40_c7
  9 40 250  chts_l9_r40_c250
  9 40 251  chts_l9_r40_c251
  9 41 6  chts_l9_r41_c6
  9 41 7  chts_l9_r41_c7
  9 41 252  chts_l9_r41_c252
  9 41 253  chts_l9_r41_c253
  9 42 6  chts_l9_r42_c6
  9 42 254  chts_l9_r42_c254
  9 43 5  chts_l9_r43_c5
  9 43 6  chts_l9_r43_c6
  9 43 255  chts_l9_r43_c255
  9 44 4  chts_l9_r44_c4
  9 44 5  chts_l9_r44_c5
  9 44 256  chts_l9_r44_c256
  9 44 257  chts_l9_r44_c257
  9 45 3  chts_l9_r45_c3
  9 45 4  chts_l9_r45_c4
  9 45 258  chts_l9_r45_c258
  9 46 3  chts_l9_r46_c3
  9 46 260  chts_l9_r46_c260
  9 46 261  chts_l9_r46_c261
  9 46 262  chts_l9_r46_c262
  9 47 3  chts_l9_r47_c3
  9 47 264  chts_l9_r47_c264
  9 48 3  chts_l9_r48_c3
  9 48 266  chts_l9_r48_c266