# File generated by Flopy version 3.3.7 on 04/18/2023 at 17:35:14.
BEGIN Options
  BUDGET  FILEOUT  secp_mf6_secp.cbc
  HEAD  FILEOUT  secp_mf6_secp.hds
END Options

BEGIN PERIOD  1
  SAVE  head  last
  SAVE  budget  last
  PRINT  budget  last
END PERIOD  1

