# File generated by Flopy version 3.3.7 on 04/18/2023 at 17:35:08.
BEGIN Options
  LIST  secp_mf6.lst
  SAVE_FLOWS
END Options

BEGIN Packages
  dis6  secp_mf6.dis
  ic6  secp_mf6.ic
  npf6  secp_mf6.npf
  sto6  secp_mf6.sto
  oc6  secp_mf6.oc
  rch6  secp_mf6.rch
  riv6  secp_mf6.riv6
  wel6  secp_mf6.wel
  chd6  secp_mf6.chd
END Packages

