BEGIN Options
  PRINT_OPTION SUMMARY
  NO_PTC
END Options

BEGIN Nonlinear
  OUTER_HCLOSE   1.0E-06
  OUTER_MAXIMUM  500
	under_relaxation dbd
	under_relaxation_theta 0.70
	under_relaxation_kappa 0.08
	under_relaxation_gamma 0.05
	under_relaxation_momentum 0.
	BACKTRACKING_NUMBER 20
	BACKTRACKING_TOLERANCE 2.
	BACKTRACKING_REDUCTION_FACTOR 0.2
	BACKTRACKING_RESIDUAL_LIMIT 5.000000E-04
END Nonlinear

BEGIN LINEAR
  #INNER_MAXIMUM  100
  #INNER_HCLOSE   1.E-06
  #INNER_RCLOSE   1e6
  #LINEAR_ACCELERATION  bicgstab
  #NUMBER_ORTHOGONALIZATIONS 101
  #RELAXATION_FACTOR 0.97
	inner_maximum 100
	inner_hclose 1.0e-6
	inner_rclose .0 RELATIVE_RCLOSE
	linear_acceleration bicgstab
	REORDERING_METHOD rcm
	PRECONDITIONER_LEVELS 5
	NUMBER_ORTHOGONALIZATIONS 7
	PRECONDITIONER_DROP_TOLERANCE 1.0e-4
END LINEAR

