
BEGIN OPTIONS
  SAVE_FLOWS
END OPTIONS

BEGIN DIMENSIONS
  MAXBOUND 127
END DIMENSIONS

BEGIN PERIOD 1
1      4725            0
1      5239            0
1      5255     -35354.4
1      5302     -35354.4
1      5318     -35354.4
1      5688     -21520.1
1      5790     -53031.6
1      5857            0
1      5967     -36891.6
1      6286            0
1      6453     -53031.6
1      6659     -35354.4
1      8246       -13281
1      8422       -13281
1      7093     -35354.4
1      8607            0
1      9275            0
1      8467       -13281
1      8451            0
1      9314     -15494.5
1      9918            0
1      7268     -35354.4
1      9323            0
1      9142            0
1      8975            0
1      9094            0
1      7371     -13834.3
1     11489            0
1     11495            0
1     12912            0
1     13471     -25476.7
1     13475     -25476.7
1     13473     -25476.7
1     13451     -25476.7
1     13449     -25476.7
1     13443     -25476.7
1     13432     -45858.1
1     13354     -45858.1
1     13344     -45858.1
1     15456            0
1     15414     -8846.09
1     15468            0
1     15449            0
1     16978            0
1     16972            0
1     16959     -29722.9
1     16818     -29722.9
1     16812     -29722.9
1     17411     -29722.9
1     17398     -29722.9
1     17392     -29722.9
1     17320     -29722.9
1     17318     -29722.9
1     17313       -15923
1     17764     -42461.2
1     17811            0
1     17802     -42461.2
1     11364            0
1     11399       -13281
1     11744     -26561.9
1     11928       -13281
1     11710            0
1     11754       -13281
1     10190     -1537.15
1      9812     -1537.15
1     10206     -1537.15
1      9809            0
1      9823     -1537.15
1      9792     -1537.15
1      9978     -35354.4
1      9994            0
1     10228            0
1      9986     -15494.5
1     21133            0
1     21148            0
1     20612            0
1     22931      -1265.5
1     23884     -8166.36
1     25855            0
1     27397     -69.6101
1     28245     -5489.64
1     28290     -5489.64
1     28806     -5489.64
1     29002     -5489.64
1     29038     -5489.64
1     29016     -5489.64
1     29014     -5489.64
1     29017     -5489.64
1     29023     -5489.64
1     29019     -5489.64
1     30456     -3264.36
1     30457     -3264.36
1     30932     -3264.36
1     30931     -3264.36
1     30996     -3264.36
1     30997     -3264.36
1     31189     -3264.36
1     31187     -3264.36
1     25977     -3912.01
1     25978     -3912.01
1     25972     -3912.01
1     33878     -5453.74
1     33679     -5453.74
1     35802     -1974.62
1     35791     -1974.62
1     35791     -1974.62
1     35790     -1974.62
1     35808     -1974.62
1     37205     -4301.97
1     37217     -4301.97
1     37193     -4301.97
1     37197     -4301.97
1     39042     -229.591
1     40661     -6810.07
1     40664     -6810.07
1     40666     -6810.07
1     40665     -6810.07
1     40646     -6810.07
1     40647     -6810.07
1     40647     -6810.07
1     40672     -6810.07
1     42084            0
1     42084     -2.54423
1     42084     -6498.16
1     41493        -1369
1     42084     -8177.36
1     42084            0
END PERIOD
BEGIN PERIOD 2
1      4725            0
1      5239            0
1      5255     -28271.7
1      5302     -41122.5
1      5318     -19276.2
1      5688            0
1      5790     -61683.7
1      5857            0
1      5967     -41122.5
1      6286            0
1      6453     -61683.7
1      6659     -41122.5
1      8246     -14804.1
1      8422            0
1      7093     -17991.1
1      8607            0
1      9275            0
1      8467     -14804.1
1      8451            0
1      9314     -17271.4
1      9918            0
1      7268     -23988.1
1      9323            0
1      9142            0
1      8975     -14804.1
1      9094            0
1      7371     -61683.7
1     11489            0
1     11495            0
1     12912            0
1     13471     -24306.6
1     13475     -24306.6
1     13473            0
1     13451     -24306.6
1     13449     -24306.6
1     13443     -24306.6
1     13432     -43751.9
1     13354     -43751.9
1     13344     -43751.9
1     15456            0
1     15414     -40511.1
1     15468            0
1     15449            0
1     16978            0
1     16972            0
1     16959     -28357.7
1     16818     -28357.7
1     16812     -28357.7
1     17411     -28357.7
1     17398     -28357.7
1     17392     -28357.7
1     17320     -28357.7
1     17318     -28357.7
1     17313     -40511.1
1     17764     -40511.1
1     17811            0
1     17802     -40511.1
1     11364            0
1     11399     -14804.1
1     11744     -29608.2
1     11928     -14804.1
1     11710            0
1     11754     -14804.1
1     10190            0
1      9812            0
1     10206            0
1      9809            0
1      9823            0
1      9792            0
1      9978     -41122.5
1      9994            0
1     10228            0
1      9986     -17271.4
1     21133            0
1     21148            0
1     20612            0
1     22931      -1265.5
1     23884     -8166.36
1     25855            0
1     27397     -69.6101
1     28245     -5489.64
1     28290     -5489.64
1     28806     -5489.64
1     29002     -5489.64
1     29038     -5489.64
1     29016     -5489.64
1     29014     -5489.64
1     29017     -5489.64
1     29023     -5489.64
1     29019     -5489.64
1     30456     -3264.36
1     30457     -3264.36
1     30932     -3264.36
1     30931     -3264.36
1     30996     -3264.36
1     30997     -3264.36
1     31189     -3264.36
1     31187     -3264.36
1     25977     -3912.01
1     25978     -3912.01
1     25972     -3912.01
1     33878     -5453.74
1     33679     -5453.74
1     35802     -1974.62
1     35791     -1974.62
1     35791     -1974.62
1     35790     -1974.62
1     35808     -1974.62
1     37205     -4301.97
1     37217     -4301.97
1     37193     -4301.97
1     37197     -4301.97
1     39042     -229.591
1     40661     -6810.07
1     40664     -6810.07
1     40666     -6810.07
1     40665     -6810.07
1     40646     -6810.07
1     40647     -6810.07
1     40647     -6810.07
1     40672     -6810.07
1     42084            0
1     42084     -2.54423
1     42084     -6498.16
1     41493        -1369
1     42084     -8177.36
1     42084            0
END PERIOD
BEGIN PERIOD 3
1      4725            0
1      5239            0
1      5255            0
1      5302     -39328.6
1      5318     -58992.9
1      5688            0
1      5790     -58992.9
1      5857            0
1      5967     -39328.6
1      6286            0
1      6453     -58992.9
1      6659     -39328.6
1      8246     -14158.3
1      8422            0
1      7093     -58992.9
1      8607            0
1      9275            0
1      8467     -14158.3
1      8451            0
1      9314       -16518
1      9918            0
1      7268     -39328.6
1      9323            0
1      9142            0
1      8975     -14158.3
1      9094            0
1      7371     -58992.9
1     11489            0
1     11495            0
1     12912            0
1     13471       -23016
1     13475       -23016
1     13473            0
1     13451       -23016
1     13449       -23016
1     13443       -23016
1     13432     -41428.8
1     13354     -41428.8
1     13344     -41428.8
1     15456            0
1     15414       -38360
1     15468            0
1     15449            0
1     16978            0
1     16972            0
1     16959       -26852
1     16818       -26852
1     16812       -26852
1     17411       -26852
1     17398       -26852
1     17392       -26852
1     17320       -26852
1     17318       -26852
1     17313       -38360
1     17764       -38360
1     17811            0
1     17802       -38360
1     11364            0
1     11399     -14158.3
1     11744     -28316.6
1     11928     -14158.3
1     11710            0
1     11754     -14158.3
1     10190            0
1      9812            0
1     10206            0
1      9809            0
1      9823            0
1      9792            0
1      9978     -39328.6
1      9994            0
1     10228            0
1      9986       -16518
1     21133            0
1     21148            0
1     20612            0
1     22931      -1265.5
1     23884     -8166.36
1     25855            0
1     27397     -69.6101
1     28245     -5489.64
1     28290     -5489.64
1     28806     -5489.64
1     29002     -5489.64
1     29038     -5489.64
1     29016     -5489.64
1     29014     -5489.64
1     29017     -5489.64
1     29023     -5489.64
1     29019     -5489.64
1     30456     -3264.36
1     30457     -3264.36
1     30932     -3264.36
1     30931     -3264.36
1     30996     -3264.36
1     30997     -3264.36
1     31189     -3264.36
1     31187     -3264.36
1     25977     -3912.01
1     25978     -3912.01
1     25972     -3912.01
1     33878     -5453.74
1     33679     -5453.74
1     35802     -1974.62
1     35791     -1974.62
1     35791     -1974.62
1     35790     -1974.62
1     35808     -1974.62
1     37205     -4301.97
1     37217     -4301.97
1     37193     -4301.97
1     37197     -4301.97
1     39042     -229.591
1     40661     -6810.07
1     40664     -6810.07
1     40666     -6810.07
1     40665     -6810.07
1     40646     -6810.07
1     40647     -6810.07
1     40647     -6810.07
1     40672     -6810.07
1     42084            0
1     42084     -2.54423
1     42084     -6498.16
1     41493        -1369
1     42084     -8177.36
1     42084            0
END PERIOD
BEGIN PERIOD 4
1      4725     -12342.5
1      5239            0
1      5255     -12342.5
1      5302       -39496
1      5318     -40730.2
1      5688            0
1      5790       -59244
1      5857            0
1      5967       -39496
1      6286     -18513.7
1      6453     -40730.2
1      6659     -40730.2
1      8246     -14218.6
1      8422     -14218.6
1      7093     -40730.2
1      8607            0
1      9275            0
1      8467     -14218.6
1      8451     -4147.08
1      9314     -11750.1
1      9918            0
1      7268       -39496
1      9323            0
1      9142            0
1      8975            0
1      9094            0
1      7371     -40730.2
1     11489            0
1     11495            0
1     12912            0
1     13471     -23246.8
1     13475     -23246.8
1     13473            0
1     13451     -23246.8
1     13449     -23246.8
1     13443     -23246.8
1     13432     -41844.3
1     13354     -41844.3
1     13344     -41844.3
1     15456            0
1     15414     -13722.1
1     15468            0
1     15449            0
1     16978            0
1     16972            0
1     16959     -27121.3
1     16818     -27121.3
1     16812     -27121.3
1     17411     -27121.3
1     17398     -27121.3
1     17392     -27121.3
1     17320     -27121.3
1     17318     -27121.3
1     17313     -38744.7
1     17764     -38744.7
1     17811            0
1     17802     -38744.7
1     11364            0
1     11399     -14218.6
1     11744     -28437.1
1     11928      -5924.4
1     11710            0
1     11754     -14218.6
1     10190            0
1      9812            0
1     10206            0
1      9809            0
1      9823            0
1      9792            0
1      9978       -39496
1      9994            0
1     10228            0
1      9986     -16588.3
1     21133            0
1     21148            0
1     20612            0
1     22931      -1265.5
1     23884     -8166.36
1     25855            0
1     27397     -69.6101
1     28245     -5489.64
1     28290     -5489.64
1     28806     -5489.64
1     29002     -5489.64
1     29038     -5489.64
1     29016     -5489.64
1     29014     -5489.64
1     29017     -5489.64
1     29023     -5489.64
1     29019     -5489.64
1     30456     -3264.36
1     30457     -3264.36
1     30932     -3264.36
1     30931     -3264.36
1     30996     -3264.36
1     30997     -3264.36
1     31189     -3264.36
1     31187     -3264.36
1     25977     -3912.01
1     25978     -3912.01
1     25972     -3912.01
1     33878     -5453.74
1     33679     -5453.74
1     35802     -1974.62
1     35791     -1974.62
1     35791     -1974.62
1     35790     -1974.62
1     35808     -1974.62
1     37205     -4301.97
1     37217     -4301.97
1     37193     -4301.97
1     37197     -4301.97
1     39042     -229.591
1     40661     -6810.07
1     40664     -6810.07
1     40666     -6810.07
1     40665     -6810.07
1     40646     -6810.07
1     40647     -6810.07
1     40647     -6810.07
1     40672     -6810.07
1     42084            0
1     42084     -2.54423
1     42084     -6498.16
1     41493        -1369
1     42084     -8177.36
1     42084            0
END PERIOD
BEGIN PERIOD 5
1      4725     -38265.6
1      5239            0
1      5255     -38265.6
1      5302     -38265.6
1      5318     -38265.6
1      5688     -20727.2
1      5790     -57398.4
1      5857            0
1      5967     -16741.2
1      6286     -57398.4
1      6453     -38265.6
1      6659     -25111.8
1      8246     -13775.6
1      8422     -13775.6
1      7093            0
1      8607            0
1      9275            0
1      8467     -13775.6
1      8451            0
1      9314     -16071.5
1      9918            0
1      7268     -38265.6
1      9323            0
1      9142            0
1      8975            0
1      9094            0
1      7371            0
1     11489     -7748.78
1     11495     -9255.49
1     12912            0
1     13471     -22930.4
1     13475     -22930.4
1     13473     -18153.2
1     13451     -22930.4
1     13449     -22930.4
1     13443     -22930.4
1     13432     -41274.7
1     13354     -41274.7
1     13344     -41274.7
1     15456            0
1     15414            0
1     15468            0
1     15449            0
1     16978            0
1     16972            0
1     16959     -26752.1
1     16818     -26752.1
1     16812     -26752.1
1     17411     -26752.1
1     17398     -26752.1
1     17392     -26752.1
1     17320     -26752.1
1     17318     -26752.1
1     17313     -38217.3
1     17764     -38217.3
1     17811            0
1     17802     -30255.4
1     11364     -7748.78
1     11399     -13775.6
1     11744     -27551.2
1     11928     -7748.78
1     11710     -7748.78
1     11754     -13775.6
1     10190            0
1      9812            0
1     10206            0
1      9809            0
1      9823            0
1      9792            0
1      9978     -38265.6
1      9994            0
1     10228            0
1      9986     -16071.5
1     21133            0
1     21148            0
1     20612            0
1     22931      -1265.5
1     23884     -8166.36
1     25855            0
1     27397     -69.6101
1     28245     -5489.64
1     28290     -5489.64
1     28806     -5489.64
1     29002     -5489.64
1     29038     -5489.64
1     29016     -5489.64
1     29014     -5489.64
1     29017     -5489.64
1     29023     -5489.64
1     29019     -5489.64
1     30456     -3264.36
1     30457     -3264.36
1     30932     -3264.36
1     30931     -3264.36
1     30996     -3264.36
1     30997     -3264.36
1     31189     -3264.36
1     31187     -3264.36
1     25977     -3912.01
1     25978     -3912.01
1     25972     -3912.01
1     33878     -5453.74
1     33679     -5453.74
1     35802     -1974.62
1     35791     -1974.62
1     35791     -1974.62
1     35790     -1974.62
1     35808     -1974.62
1     37205     -4301.97
1     37217     -4301.97
1     37193     -4301.97
1     37197     -4301.97
1     39042     -229.591
1     40661     -6810.07
1     40664     -6810.07
1     40666     -6810.07
1     40665     -6810.07
1     40646     -6810.07
1     40647     -6810.07
1     40647     -6810.07
1     40672     -6810.07
1     42084            0
1     42084     -2.54423
1     42084     -6498.16
1     41493        -1369
1     42084     -8177.36
1     42084            0
END PERIOD
BEGIN PERIOD 6
1      4725     -37878.1
1      5239            0
1      5255     -37878.1
1      5302     -37878.1
1      5318     -37878.1
1      5688     -20517.3
1      5790     -56817.2
1      5857            0
1      5967            0
1      6286     -56817.2
1      6453     -37878.1
1      6659            0
1      8246     -13636.1
1      8422     -13636.1
1      7093            0
1      8607            0
1      9275            0
1      8467     -13636.1
1      8451            0
1      9314     -15908.8
1      9918            0
1      7268     -37878.1
1      9323            0
1      9142            0
1      8975            0
1      9094            0
1      7371            0
1     11489     -13636.1
1     11495     -16287.6
1     12912            0
1     13471     -25252.8
1     13475     -25252.8
1     13473     -25252.8
1     13451     -25252.8
1     13449     -25252.8
1     13443     -25252.8
1     13432     -45455.1
1     13354     -45455.1
1     13344     -45455.1
1     15456     -20167.2
1     15414     -20167.2
1     15468            0
1     15449            0
1     16978            0
1     16972            0
1     16959     -16572.2
1     16818     -29461.6
1     16812     -29461.6
1     17411     -29461.6
1     17398     -29461.6
1     17392     -29461.6
1     17320     -29461.6
1     17318     -29461.6
1     17313       -42088
1     17764       -42088
1     17811            0
1     17802     -25428.2
1     11364     -13636.1
1     11399     -13636.1
1     11744     -27272.3
1     11928     -13636.1
1     11710     -13636.1
1     11754     -13636.1
1     10190            0
1      9812            0
1     10206            0
1      9809            0
1      9823            0
1      9792            0
1      9978     -37878.1
1      9994            0
1     10228            0
1      9986     -15908.8
1     21133            0
1     21148            0
1     20612            0
1     22931      -1265.5
1     23884     -8166.36
1     25855            0
1     27397     -69.6101
1     28245     -5489.64
1     28290     -5489.64
1     28806     -5489.64
1     29002     -5489.64
1     29038     -5489.64
1     29016     -5489.64
1     29014     -5489.64
1     29017     -5489.64
1     29023     -5489.64
1     29019     -5489.64
1     30456     -3264.36
1     30457     -3264.36
1     30932     -3264.36
1     30931     -3264.36
1     30996     -3264.36
1     30997     -3264.36
1     31189     -3264.36
1     31187     -3264.36
1     25977     -3912.01
1     25978     -3912.01
1     25972     -3912.01
1     33878     -5453.74
1     33679     -5453.74
1     35802     -1974.62
1     35791     -1974.62
1     35791     -1974.62
1     35790     -1974.62
1     35808     -1974.62
1     37205     -4301.97
1     37217     -4301.97
1     37193     -4301.97
1     37197     -4301.97
1     39042     -229.591
1     40661     -6810.07
1     40664     -6810.07
1     40666     -6810.07
1     40665     -6810.07
1     40646     -6810.07
1     40647     -6810.07
1     40647     -6810.07
1     40672     -6810.07
1     42084            0
1     42084     -2.54423
1     42084     -6498.16
1     41493        -1369
1     42084     -8177.36
1     42084            0
END PERIOD
BEGIN PERIOD 7
1      4725     -38118.2
1      5239            0
1      5255     -38118.2
1      5302     -38118.2
1      5318     -38118.2
1      5688     -20647.3
1      5790     -57177.3
1      5857            0
1      5967     -3970.64
1      6286     -57177.3
1      6453     -38118.2
1      6659            0
1      8246     -13722.5
1      8422     -13722.5
1      7093            0
1      8607            0
1      9275            0
1      8467     -13722.5
1      8451            0
1      9314     -16009.6
1      9918            0
1      7268     -34147.5
1      9323            0
1      9142            0
1      8975            0
1      9094            0
1      7371            0
1     11489     -13722.5
1     11495     -16390.8
1     12912            0
1     13471     -23987.7
1     13475     -23987.7
1     13473     -23987.7
1     13451     -23987.7
1     13449     -23987.7
1     13443     -23987.7
1     13432     -43177.8
1     13354     -43177.8
1     13344     -43177.8
1     15456     -39979.5
1     15414     -39979.5
1     15468            0
1     15449            0
1     16978            0
1     16972            0
1     16959            0
1     16818     -27985.6
1     16812     -27985.6
1     17411     -27985.6
1     17398     -27985.6
1     17392     -27985.6
1     17320     -27985.6
1     17318     -27985.6
1     17313     -19989.7
1     17764     -39979.5
1     17811            0
1     17802     -39979.5
1     11364     -13722.5
1     11399     -13722.5
1     11744     -27445.1
1     11928     -13722.5
1     11710     -13722.5
1     11754     -13722.5
1     10190            0
1      9812            0
1     10206            0
1      9809            0
1      9823            0
1      9792            0
1      9978     -38118.2
1      9994            0
1     10228            0
1      9986     -16009.6
1     21133            0
1     21148            0
1     20612            0
1     22931      -1265.5
1     23884     -8166.36
1     25855            0
1     27397     -69.6101
1     28245     -5489.64
1     28290     -5489.64
1     28806     -5489.64
1     29002     -5489.64
1     29038     -5489.64
1     29016     -5489.64
1     29014     -5489.64
1     29017     -5489.64
1     29023     -5489.64
1     29019     -5489.64
1     30456     -3264.36
1     30457     -3264.36
1     30932     -3264.36
1     30931     -3264.36
1     30996     -3264.36
1     30997     -3264.36
1     31189     -3264.36
1     31187     -3264.36
1     25977     -3912.01
1     25978     -3912.01
1     25972     -3912.01
1     33878     -5453.74
1     33679     -5453.74
1     35802     -1974.62
1     35791     -1974.62
1     35791     -1974.62
1     35790     -1974.62
1     35808     -1974.62
1     37205     -4301.97
1     37217     -4301.97
1     37193     -4301.97
1     37197     -4301.97
1     39042     -229.591
1     40661     -6810.07
1     40664     -6810.07
1     40666     -6810.07
1     40665     -6810.07
1     40646     -6810.07
1     40647     -6810.07
1     40647     -6810.07
1     40672     -6810.07
1     42084            0
1     42084     -2.54423
1     42084     -6498.16
1     41493        -1369
1     42084     -8177.36
1     42084            0
END PERIOD
BEGIN PERIOD 8
1      4725       -38494
1      5239            0
1      5255       -38494
1      5302     -28870.5
1      5318       -38494
1      5688            0
1      5790       -57741
1      5857            0
1      5967            0
1      6286       -57741
1      6453       -38494
1      6659            0
1      8246     -13857.8
1      8422     -13857.8
1      7093            0
1      8607            0
1      9275            0
1      8467     -13857.8
1      8451            0
1      9314     -16167.5
1      9918            0
1      7268       -38494
1      9323            0
1      9142            0
1      8975            0
1      9094            0
1      7371            0
1     11489     -13857.8
1     11495     -16552.4
1     12912            0
1     13471     -25194.7
1     13475     -25194.7
1     13473     -25194.7
1     13451     -25194.7
1     13449     -25194.7
1     13443     -25194.7
1     13432     -45350.5
1     13354     -45350.5
1     13344     -45350.5
1     15456     -41991.2
1     15414     -41991.2
1     15468            0
1     15449            0
1     16978            0
1     16972            0
1     16959            0
1     16818     -29393.8
1     16812     -29393.8
1     17411     -29393.8
1     17398     -29393.8
1     17392     -29393.8
1     17320     -29393.8
1     17318     -29393.8
1     17313     -41991.2
1     17764     -22745.2
1     17811            0
1     17802            0
1     11364     -13857.8
1     11399     -13857.8
1     11744     -27715.7
1     11928     -13857.8
1     11710     -13857.8
1     11754     -13857.8
1     10190            0
1      9812            0
1     10206            0
1      9809            0
1      9823            0
1      9792            0
1      9978       -38494
1      9994            0
1     10228            0
1      9986     -16167.5
1     21133            0
1     21148            0
1     20612            0
1     22931      -1265.5
1     23884     -8166.36
1     25855            0
1     27397     -69.6101
1     28245     -5489.64
1     28290     -5489.64
1     28806     -5489.64
1     29002     -5489.64
1     29038     -5489.64
1     29016     -5489.64
1     29014     -5489.64
1     29017     -5489.64
1     29023     -5489.64
1     29019     -5489.64
1     30456     -3264.36
1     30457     -3264.36
1     30932     -3264.36
1     30931     -3264.36
1     30996     -3264.36
1     30997     -3264.36
1     31189     -3264.36
1     31187     -3264.36
1     25977     -3912.01
1     25978     -3912.01
1     25972     -3912.01
1     33878     -5453.74
1     33679     -5453.74
1     35802     -1974.62
1     35791     -1974.62
1     35791     -1974.62
1     35790     -1974.62
1     35808     -1974.62
1     37205     -4301.97
1     37217     -4301.97
1     37193     -4301.97
1     37197     -4301.97
1     39042     -229.591
1     40661     -6810.07
1     40664     -6810.07
1     40666     -6810.07
1     40665     -6810.07
1     40646     -6810.07
1     40647     -6810.07
1     40647     -6810.07
1     40672     -6810.07
1     42084            0
1     42084     -2.54423
1     42084     -6498.16
1     41493        -1369
1     42084     -8177.36
1     42084            0
END PERIOD
BEGIN PERIOD 9
1      4725     -37168.9
1      5239            0
1      5255     -37168.9
1      5302     -55753.4
1      5318     -37168.9
1      5688            0
1      5790     -55753.4
1      5857            0
1      5967            0
1      6286     -55753.4
1      6453     -37168.9
1      6659            0
1      8246     -13380.8
1      8422     -13380.8
1      7093            0
1      8607            0
1      9275            0
1      8467     -13380.8
1      8451            0
1      9314     -15610.9
1      9918     -13938.3
1      7268     -37168.9
1      9323            0
1      9142            0
1      8975            0
1      9094            0
1      7371            0
1     11489     -13380.8
1     11495     -15982.6
1     12912            0
1     13471     -25507.7
1     13475     -25507.7
1     13473     -25507.7
1     13451     -25507.7
1     13449     -25507.7
1     13443     -25507.7
1     13432     -45913.8
1     13354     -45913.8
1     13344     -45913.8
1     15456     -35427.3
1     15414     -35427.3
1     15468            0
1     15449            0
1     16978            0
1     16972            0
1     16959            0
1     16818       -29759
1     16812       -29759
1     17411       -29759
1     17398       -29759
1     17392       -29759
1     17320       -29759
1     17318       -29759
1     17313     -42512.8
1     17764     -22142.1
1     17811            0
1     17802     -7085.47
1     11364     -13380.8
1     11399     -13380.8
1     11744     -10035.6
1     11928     -13380.8
1     11710     -13380.8
1     11754     -13380.8
1     10190            0
1      9812            0
1     10206            0
1      9809            0
1      9823            0
1      9792            0
1      9978     -37168.9
1      9994            0
1     10228            0
1      9986     -15610.9
1     21133            0
1     21148            0
1     20612            0
1     22931      -1265.5
1     23884     -8166.36
1     25855            0
1     27397     -69.6101
1     28245     -5489.64
1     28290     -5489.64
1     28806     -5489.64
1     29002     -5489.64
1     29038     -5489.64
1     29016     -5489.64
1     29014     -5489.64
1     29017     -5489.64
1     29023     -5489.64
1     29019     -5489.64
1     30456     -3264.36
1     30457     -3264.36
1     30932     -3264.36
1     30931     -3264.36
1     30996     -3264.36
1     30997     -3264.36
1     31189     -3264.36
1     31187     -3264.36
1     25977     -3912.01
1     25978     -3912.01
1     25972     -3912.01
1     33878     -5453.74
1     33679     -5453.74
1     35802     -1974.62
1     35791     -1974.62
1     35791     -1974.62
1     35790     -1974.62
1     35808     -1974.62
1     37205     -4301.97
1     37217     -4301.97
1     37193     -4301.97
1     37197     -4301.97
1     39042     -229.591
1     40661     -6810.07
1     40664     -6810.07
1     40666     -6810.07
1     40665     -6810.07
1     40646     -6810.07
1     40647     -6810.07
1     40647     -6810.07
1     40672     -6810.07
1     42084            0
1     42084     -2.54423
1     42084     -6498.16