begin options
  print_option summary
  no_ptc
end options

begin nonlinear
  outer_dvclose   1.0e-06
  outer_maximum  500
	under_relaxation dbd
	under_relaxation_theta 0.70
	under_relaxation_kappa 0.08
	under_relaxation_gamma 0.05
	under_relaxation_momentum 0.
	backtracking_number 20
	backtracking_tolerance 2.
	backtracking_reduction_factor 0.2
	backtracking_residual_limit 5.000000e-04
end nonlinear

begin linear
  #inner_maximum  100
  #inner_dvclose   1.e-06
  #inner_rclose   1e6
  #linear_acceleration  bicgstab
  #number_orthogonalizations 101
  #relaxation_factor 0.97
	inner_maximum 100
	inner_dvclose 1.0e-6
	inner_rclose .0 relative_rclose
	linear_acceleration bicgstab
	reordering_method rcm
	preconditioner_levels 5
	number_orthogonalizations 7
	preconditioner_drop_tolerance 1.0e-4
end linear

