BEGIN OPTIONS
  DEV_MODFLOWUSG_UPSTREAM_WEIGHTED_SATURATION
  ALTERNATIVE_CELL_AVERAGING  AMT-HMK
END OPTIONS

BEGIN GRIDDATA
  ICELLTYPE
    CONSTANT 1
  K
    OPEN/CLOSE biscayne.npf.hk.dat FACTOR  1.0  IPRN -1
  K33
    CONSTANT 1.
END GRIDDATA
