
BEGIN OPTIONS
  SAVE_FLOWS
END OPTIONS

BEGIN DIMENSIONS
  MAXBOUND 3536
END DIMENSIONS

BEGIN PERIOD 1
1 43016 0.0
1 43017 0.0
1 43018 0.0
1 57466 0.0
1 57467 0.0
1 67244 0.0
1 68507 0.0
1 73322 0.0
1 73323 0.0
1 73428 0.0
1 73429 0.0
1 73431 0.0
1 73434 0.0
1 73436 0.0
1 73437 0.0
1 73440 0.0
1 73441 0.0
1 73599 0.0
1 73600 0.0
1 73601 0.0
1 73602 0.0
1 73603 0.0
1 73605 0.0
1 73606 0.0
1 73612 0.0
1 73615 0.0
1 73616 0.0
1 73683 0.0
1 73685 0.0
1 73686 0.0
1 73690 0.0
1 73691 0.0
1 73692 0.0
1 73695 0.0
1 73809 0.0
1 73810 0.0
1 73814 0.0
1 73815 0.0
1 74398 0.0
1 74399 0.0
1 74400 0.0
1 74402 0.0
1 74403 0.0
1 74406 0.0
1 74407 0.0
1 74411 0.0
1 74416 0.0
1 74417 0.0
1 74633 0.0
1 74634 0.0
1 74635 0.0
1 74636 0.0
1 74641 0.0
1 74642 0.0
1 74643 0.0
1 74644 0.0
1 74649 0.0
1 74650 0.0
1 74651 0.0
1 74654 0.0
1 74656 0.0
1 74657 0.0
1 74659 0.0
1 74660 0.0
1 74661 0.0
1 74665 0.0
1 74666 0.0
1 74667 0.0
1 75062 0.0
1 75063 0.0
1 75065 0.0
1 75068 0.0
1 75070 0.0
1 75071 0.0
1 75074 0.0
1 75075 0.0
1 75079 0.0
1 75080 0.0
1 75081 0.0
1 75082 0.0
1 75085 0.0
1 75088 0.0
1 75091 0.0
1 75092 0.0
1 75094 0.0
1 75095 0.0
1 75097 0.0
1 75098 0.0
1 75103 0.0
1 75104 0.0
1 75107 0.0
1 75108 0.0
1 75111 0.0
1 75112 0.0
1 75115 0.0
1 75116 0.0
1 75121 0.0
1 75122 0.0
1 75123 0.0
1 75124 0.0
1 75129 0.0
1 75130 0.0
1 75131 0.0
1 75132 0.0
1 75137 0.0
1 75138 0.0
1 75139 0.0
1 75142 0.0
1 75144 0.0
1 75145 0.0
1 75148 0.0
1 75149 0.0
1 75151 0.0
1 75154 0.0
1 75156 0.0
1 75157 0.0
1 75159 0.0
1 75160 0.0
1 75165 0.0
1 75166 0.0
1 75167 0.0
1 75170 0.0
1 75171 0.0
1 75174 0.0
1 75177 0.0
1 75178 0.0
1 75181 0.0
1 75182 0.0
1 75184 0.0
1 75185 0.0
1 75187 0.0
1 75188 0.0
1 75193 0.0
1 75194 0.0
1 75195 0.0
1 75198 0.0
1 75202 0.0
1 75203 0.0
1 75206 0.0
1 75207 0.0
1 75210 0.0
1 75211 0.0
1 75214 0.0
1 75215 0.0
1 75219 0.0
1 75222 0.0
1 75223 0.0
1 75228 0.0
1 75229 0.0
1 75232 0.0
1 75235 0.0
1 75236 0.0
1 75237 0.0
1 75240 0.0
1 75242 0.0
1 75243 0.0
1 75247 0.0
1 75248 0.0
1 75249 0.0
1 75252 0.0
1 75254 0.0
1 75255 0.0
1 75258 0.0
1 75259 0.0
1 75262 0.0
1 75263 0.0
1 75266 0.0
1 75267 0.0
1 75270 0.0
1 75271 0.0
1 75274 0.0
1 75275 0.0
1 75278 0.0
1 75279 0.0
1 75282 0.0
1 75283 0.0
1 75286 0.0
1 75287 0.0
1 75291 0.0
1 75296 0.0
1 75297 0.0
1 75298 0.0
1 75299 0.0
1 75300 0.0
1 75302 0.0
1 75303 0.0
1 75309 0.0
1 75312 0.0
1 75313 0.0
1 75316 0.0
1 75317 0.0
1 75318 0.0
1 75319 0.0
1 75320 0.0
1 75322 0.0
1 75323 0.0
1 75326 0.0
1 75329 0.0
1 75331 0.0
1 75335 0.0
1 75336 0.0
1 75338 0.0
1 75340 0.0
1 75341 0.0
1 75345 0.0
1 75347 0.0
1 75348 0.0
1 75350 0.0
1 75352 0.0
1 75353 0.0
1 75357 0.0
1 75359 0.0
1 75360 0.0
1 75362 0.0
1 75364 0.0
1 75365 0.0
1 75369 0.0
1 75371 0.0
1 75372 0.0
1 75374 0.0
1 75376 0.0
1 75377 0.0
1 75378 0.0
1 75381 0.0
1 75383 0.0
1 75386 0.0
1 75388 0.0
1 75389 0.0
1 75391 0.0
1 75394 0.0
1 75396 0.0
1 75397 0.0
1 75399 0.0
1 75402 0.0
1 75404 0.0
1 75405 0.0
1 75407 0.0
1 75410 0.0
1 75412 0.0
1 75413 0.0
1 75415 0.0
1 75420 0.0
1 75421 0.0
1 75422 0.0
1 75423 0.0
1 75424 0.0
1 75429 0.0
1 75430 0.0
1 75431 0.0
1 75432 0.0
1 75437 0.0
1 75438 0.0
1 75439 0.0
1 75440 0.0
1 75445 0.0
1 75446 0.0
1 75448 0.0
1 75449 0.0
1 75451 0.0
1 75454 0.0
1 75456 0.0
1 75457 0.0
1 75459 0.0
1 75462 0.0
1 75464 0.0
1 75465 0.0
1 75466 0.0
1 75467 0.0
1 75473 0.0
1 75476 0.0
1 75477 0.0
1 75478 0.0
1 75479 0.0
1 75480 0.0
1 75483 0.0
1 75488 0.0
1 75489 0.0
1 75490 0.0
1 75492 0.0
1 75493 0.0
1 75494 0.0
1 75495 0.0
1 75501 0.0
1 75502 0.0
1 75503 0.0
1 75504 0.0
1 75509 0.0
1 75510 0.0
1 75512 0.0
1 75513 0.0
1 75515 0.0
1 75520 0.0
1 75521 0.0
1 75522 0.0
1 75523 0.0
1 75524 0.0
1 75529 0.0
1 75530 0.0
1 75532 0.0
1 75533 0.0
1 75535 0.0
1 75538 0.0
1 75540 0.0
1 75541 0.0
1 75545 0.0
1 75547 0.0
1 75548 0.0
1 75550 0.0
1 75551 0.0
1 75552 0.0
1 75554 0.0
1 75557 0.0
1 75559 0.0
1 75562 0.0
1 75564 0.0
1 75565 0.0
1 75567 0.0
1 75572 0.0
1 75573 0.0
1 75574 0.0
1 75575 0.0
1 75576 0.0
1 75581 0.0
1 75582 0.0
1 75583 0.0
1 75584 0.0
1 75586 0.0
1 75587 0.0
1 75591 0.0
1 75596 0.0
1 75597 0.0
1 75600 0.0
1 75601 0.0
1 75602 0.0
1 75604 0.0
1 75605 0.0
1 75606 0.0
1 75607 0.0
1 75610 0.0
1 75611 0.0
1 75615 0.0
1 75619 0.0
1 75620 0.0
1 75621 0.0
1 75622 0.0
1 75624 0.0
1 75625 0.0
1 75627 0.0
1 75630 0.0
1 75631 0.0
1 75632 0.0
1 75634 0.0
1 75637 0.0
1 75639 0.0
1 75642 0.0
1 75644 0.0
1 75645 0.0
1 75649 0.0
1 75651 0.0
1 75652 0.0
1 75654 0.0
1 75656 0.0
1 75657 0.0
1 75658 0.0
1 75659 0.0
1 75662 0.0
1 75663 0.0
1 75669 0.0
1 75672 0.0
1 75673 0.0
1 75676 0.0
1 75677 0.0
1 75680 0.0
1 75681 0.0
1 75684 0.0
1 75685 0.0
1 75688 0.0
1 75689 0.0
1 75692 0.0
1 75693 0.0
1 75696 0.0
1 75697 0.0
1 75700 0.0
1 75701 0.0
1 75702 0.0
1 75703 0.0
1 75704 0.0
1 75706 0.0
1 75707 0.0
1 75710 0.0
1 75711 0.0
1 75714 0.0
1 75715 0.0
1 75719 0.0
1 75724 0.0
1 75725 0.0
1 75728 0.0
1 75729 0.0
1 75732 0.0
1 75733 0.0
1 75736 0.0
1 75737 0.0
1 75738 0.0
1 75739 0.0
1 75740 0.0
1 75742 0.0
1 75743 0.0
1 75746 0.0
1 75747 0.0
1 75751 0.0
1 75756 0.0
1 75757 0.0
1 75760 0.0
1 75761 0.0
1 75764 0.0
1 75765 0.0
1 75766 0.0
1 75767 0.0
1 75768 0.0
1 75770 0.0
1 75771 0.0
1 75774 0.0
1 75775 0.0
1 75779 0.0
1 75784 0.0
1 75785 0.0
1 75786 0.0
1 75788 0.0
1 75789 0.0
1 75791 0.0
1 75794 0.0
1 75796 0.0
1 75797 0.0
1 75799 0.0
1 75802 0.0
1 75804 0.0
1 75805 0.0
1 75806 0.0
1 75807 0.0
1 75813 0.0
1 75814 0.0
1 75815 0.0
1 75816 0.0
1 75821 0.0
1 75822 0.0
1 75823 0.0
1 75824 0.0
1 75827 0.0
1 75832 0.0
1 75833 0.0
1 75834 0.0
1 75835 0.0
1 75836 0.0
1 75838 0.0
1 75839 0.0
1 75845 0.0
1 75848 0.0
1 75849 0.0
1 75850 0.0
1 75851 0.0
1 75852 0.0
1 75854 0.0
1 75855 0.0
1 75859 0.0
1 75860 0.0
1 75861 0.0
1 75864 0.0
1 75865 0.0
1 75866 0.0
1 75870 0.0
1 75871 0.0
1 75874 0.0
1 75875 0.0
1 75877 0.0
1 75880 0.0
1 75881 0.0
1 75884 0.0
1 75885 0.0
1 75886 0.0
1 75890 0.0
1 75891 0.0
1 75894 0.0
1 75895 0.0
1 75897 0.0
1 75900 0.0
1 75901 0.0
1 75904 0.0
1 75905 0.0
1 75906 0.0
1 75907 0.0
1 75908 0.0
1 75910 0.0
1 75911 0.0
1 75915 0.0
1 75920 0.0
1 75921 0.0
1 75922 0.0
1 75923 0.0
1 75924 0.0
1 75929 0.0
1 75930 0.0
1 75931 0.0
1 75932 0.0
1 75937 0.0
1 75938 0.0
1 75939 0.0
1 75940 0.0
1 75943 0.0
1 75946 0.0
1 75948 0.0
1 75949 0.0
1 75951 0.0
1 75954 0.0
1 75956 0.0
1 75957 0.0
1 75959 0.0
1 75962 0.0
1 75964 0.0
1 75965 0.0
1 75966 0.0
1 75967 0.0
1 75970 0.0
1 75971 0.0
1 75974 0.0
1 75975 0.0
1 75981 0.0
1 75984 0.0
1 75985 0.0
1 75988 0.0
1 75989 0.0
1 75992 0.0
1 75993 0.0
1 75996 0.0
1 75997 0.0
1 76000 0.0
1 76001 0.0
1 76004 0.0
1 76005 0.0
1 76008 0.0
1 76009 0.0
1 76012 0.0
1 76013 0.0
1 76016 0.0
1 76017 0.0
1 76020 0.0
1 76021 0.0
1 76024 0.0
1 76025 0.0
1 76028 0.0
1 76029 0.0
1 76032 0.0
1 76034 0.0
1 76035 0.0
1 76038 0.0
1 76039 0.0
1 76042 0.0
1 76043 0.0
1 76046 0.0
1 76047 0.0
1 76050 0.0
1 76051 0.0
1 76054 0.0
1 76055 0.0
1 76058 0.0
1 76059 0.0
1 76062 0.0
1 76063 0.0
1 76066 0.0
1 76067 0.0
1 76070 0.0
1 76071 0.0
1 76074 0.0
1 76075 0.0
1 76078 0.0
1 76079 0.0
1 76082 0.0
1 76083 0.0
1 76086 0.0
1 76087 0.0
1 76090 0.0
1 76091 0.0
1 76094 0.0
1 76095 0.0
1 76098 0.0
1 76099 0.0
1 76102 0.0
1 76103 0.0
1 76106 0.0
1 76107 0.0
1 76110 0.0
1 76111 0.0
1 76114 0.0
1 76115 0.0
1 76118 0.0
1 76119 0.0
1 76122 0.0
1 76123 0.0
1 76125 0.0
1 76128 0.0
1 76130 0.0
1 76131 0.0
1 76133 0.0
1 76136 0.0
1 76137 0.0
1 76140 0.0
1 76141 0.0
1 76142 0.0
1 76146 0.0
1 76147 0.0
1 76148 0.0
1 76150 0.0
1 76151 0.0
1 76155 0.0
1 76160 0.0
1 76161 0.0
1 76164 0.0
1 76165 0.0
1 76168 0.0
1 76169 0.0
1 76170 0.0
1 76171 0.0
1 76172 0.0
1 76175 0.0
1 76178 0.0
1 76180 0.0
1 76181 0.0
1 76185 0.0
1 76186 0.0
1 76187 0.0
1 76188 0.0
1 76191 0.0
1 76195 0.0
1 76196 0.0
1 76197 0.0
1 76200 0.0
1 76201 0.0
1 76204 0.0
1 76205 0.0
1 76208 0.0
1 76209 0.0
1 76212 0.0
1 76213 0.0
1 76214 0.0
1 76215 0.0
1 76216 0.0
1 76218 0.0
1 76219 0.0
1 76222 0.0
1 76223 0.0
1 76226 0.0
1 76227 0.0
1 76233 0.0
1 76236 0.0
1 76237 0.0
1 76240 0.0
1 76241 0.0
1 76244 0.0
1 76245 0.0
1 76246 0.0
1 76247 0.0
1 76248 0.0
1 76251 0.0
1 76256 0.0
1 76257 0.0
1 76258 0.0
1 76259 0.0
1 76260 0.0
1 76263 0.0
1 76267 0.0
1 76268 0.0
1 76270 0.0
1 76272 0.0
1 76273 0.0
1 76274 0.0
1 76277 0.0
1 76279 0.0
1 76282 0.0
1 76283 0.0
1 76284 0.0
1 76289 0.0
1 76290 0.0
1 76292 0.0
1 76293 0.0
1 76295 0.0
1 76298 0.0
1 76300 0.0
1 76301 0.0
1 76303 0.0
1 76306 0.0
1 76308 0.0
1 76309 0.0
1 76311 0.0
1 76314 0.0
1 76315 0.0
1 76316 0.0
1 76321 0.0
1 76322 0.0
1 76323 0.0
1 76324 0.0
1 76327 0.0
1 76330 0.0
1 76332 0.0
1 76333 0.0
1 76335 0.0
1 76338 0.0
1 76340 0.0
1 76341 0.0
1 76343 0.0
1 76346 0.0
1 76347 0.0
1 76348 0.0
1 76350 0.0
1 76353 0.0
1 76357 0.0
1 76359 0.0
1 76360 0.0
1 76363 0.0
1 76364 0.0
1 76366 0.0
1 76368 0.0
1 76369 0.0
1 76371 0.0
1 76374 0.0
1 76376 0.0
1 76377 0.0
1 76381 0.0
1 76382 0.0
1 76383 0.0
1 76384 0.0
1 76386 0.0
1 76389 0.0
1 76390 0.0
1 76391 0.0
1 76397 0.0
1 76400 0.0
1 76401 0.0
1 76402 0.0
1 76403 0.0
1 76404 0.0
1 76406 0.0
1 76407 0.0
1 76411 0.0
1 76414 0.0
1 76416 0.0
1 76417 0.0
1 76419 0.0
1 76422 0.0
1 76424 0.0
1 76425 0.0
1 76429 0.0
1 76431 0.0
1 76432 0.0
1 76434 0.0
1 76436 0.0
1 76437 0.0
1 76438 0.0
1 76441 0.0
1 76442 0.0
1 76445 0.0
1 76448 0.0
1 76449 0.0
1 76450 0.0
1 76453 0.0
1 76455 0.0
1 76456 0.0
1 76461 0.0
1 76462 0.0
1 76464 0.0
1 76465 0.0
1 76466 0.0
1 76469 0.0
1 76471 0.0
1 76474 0.0
1 76476 0.0
1 76477 0.0
1 76479 0.0
1 76482 0.0
1 76484 0.0
1 76485 0.0
1 76487 0.0
1 76490 0.0
1 76491 0.0
1 76492 0.0
1 76494 0.0
1 76497 0.0
1 76499 0.0
1 76502 0.0
1 76504 0.0
1 76505 0.0
1 76509 0.0
1 76511 0.0
1 76512 0.0
1 76514 0.0
1 76516 0.0
1 76517 0.0
1 76519 0.0
1 76522 0.0
1 76523 0.0
1 76524 0.0
1 76526 0.0
1 76529 0.0
1 76531 0.0
1 76534 0.0
1 76536 0.0
1 76537 0.0
1 76539 0.0
1 76542 0.0
1 76543 0.0
1 76544 0.0
1 76549 0.0
1 76550 0.0
1 76551 0.0
1 76552 0.0
1 76557 0.0
1 76558 0.0
1 76559 0.0
1 76560 0.0
1 76565 0.0
1 76566 0.0
1 76567 0.0
1 76568 0.0
1 76573 0.0
1 76574 0.0
1 76575 0.0
1 76576 0.0
1 76581 0.0
1 76583 0.0
1 76584 0.0
1 76586 0.0
1 76588 0.0
1 76589 0.0
1 76591 0.0
1 76594 0.0
1 76595 0.0
1 76596 0.0
1 76601 0.0
1 76603 0.0
1 76604 0.0
1 76606 0.0
1 76608 0.0
1 76609 0.0
1 76611 0.0
1 76616 0.0
1 76617 0.0
1 76618 0.0
1 76619 0.0
1 76620 0.0
1 76623 0.0
1 76626 0.0
1 76628 0.0
1 76629 0.0
1 76630 0.0
1 76631 0.0
1 76637 0.0
1 76638 0.0
1 76640 0.0
1 76641 0.0
1 76642 0.0
1 76643 0.0
1 76649 0.0
1 76650 0.0
1 76652 0.0
1 76653 0.0
1 76654 0.0
1 76655 0.0
1 76661 0.0
1 76662 0.0
1 76664 0.0
1 76665 0.0
1 76666 0.0
1 76667 0.0
1 76673 0.0
1 76674 0.0
1 76676 0.0
1 76677 0.0
1 76681 0.0
1 76682 0.0
1 76683 0.0
1 76684 0.0
1 76689 0.0
1 76690 0.0
1 76691 0.0
1 76692 0.0
1 76697 0.0
1 76700 0.0
1 76701 0.0
1 76704 0.0
1 76706 0.0
1 76707 0.0
1 76710 0.0
1 76711 0.0
1 76714 0.0
1 76715 0.0
1 76717 0.0
1 76720 0.0
1 76722 0.0
1 76723 0.0
1 76725 0.0
1 76728 0.0
1 76729 0.0
1 76730 0.0
1 76735 0.0
1 76736 0.0
1 76737 0.0
1 76740 0.0
1 76741 0.0
1 76744 0.0
1 76745 0.0
1 76748 0.0
1 76749 0.0
1 76750 0.0
1 76752 0.0
1 76753 0.0
1 76756 0.0
1 76757 0.0
1 76760 0.0
1 76761 0.0
1 76764 0.0
1 76765 0.0
1 76768 0.0
1 76769 0.0
1 76772 0.0
1 76773 0.0
1 76774 0.0
1 76776 0.0
1 76777 0.0
1 76778 0.0
1 76779 0.0
1 76782 0.0
1 76783 0.0
1 76789 0.0
1 76790 0.0
1 76792 0.0
1 76793 0.0
1 76794 0.0
1 76795 0.0
1 76799 0.0
1 76804 0.0
1 76805 0.0
1 76806 0.0
1 76808 0.0
1 76809 0.0
1 76810 0.0
1 76811 0.0
1 76815 0.0
1 76820 0.0
1 76821 0.0
1 76822 0.0
1 76824 0.0
1 76825 0.0
1 76826 0.0
1 76827 0.0
1 76833 0.0
1 76834 0.0
1 76836 0.0
1 76837 0.0
1 76838 0.0
1 76839 0.0
1 76845 0.0
1 76846 0.0
1 76848 0.0
1 76849 0.0
1 76851 0.0
1 76852 0.0
1 76853 0.0
1 76856 0.0
1 76858 0.0
1 76861 0.0
1 76863 0.0
1 76864 0.0
1 76869 0.0
1 76870 0.0
1 76872 0.0
1 76873 0.0
1 76874 0.0
1 76877 0.0
1 76879 0.0
1 76882 0.0
1 76883 0.0
1 76884 0.0
1 76887 0.0
1 76890 0.0
1 76892 0.0
1 76893 0.0
1 76895 0.0
1 76898 0.0
1 76900 0.0
1 76901 0.0
1 76904 0.0
1 76905 0.0
1 76908 0.0
1 76909 0.0
1 76912 0.0
1 76914 0.0
1 76915 0.0
1 76918 0.0
1 76919 0.0
1 76923 0.0
1 76924 0.0
1 76925 0.0
1 76926 0.0
1 76927 0.0
1 76928 0.0
1 76930 0.0
1 76931 0.0
1 76937 0.0
1 76940 0.0
1 76941 0.0
1 76942 0.0
1 76943 0.0
1 76944 0.0
1 76947 0.0
1 76952 0.0
1 76953 0.0
1 76954 0.0
1 76956 0.0
1 76957 0.0
1 76958 0.0
1 76959 0.0
1 76965 0.0
1 76966 0.0
1 76968 0.0
1 76969 0.0
1 76970 0.0
1 76971 0.0
1 76975 0.0
1 76980 0.0
1 76981 0.0
1 76982 0.0
1 76983 0.0
1 76984 0.0
1 76987 0.0
1 76992 0.0
1 76993 0.0
1 76994 0.0
1 76995 0.0
1 76996 0.0
1 76998 0.0
1 76999 0.0
1 77005 0.0
1 77008 0.0
1 77009 0.0
1 77010 0.0
1 77012 0.0
1 77013 0.0
1 77014 0.0
1 77015 0.0
1 77019 0.0
1 77024 0.0
1 77025 0.0
1 77028 0.0
1 77029 0.0
1 77030 0.0
1 77031 0.0
1 77032 0.0
1 77034 0.0
1 77035 0.0
1 77041 0.0
1 77044 0.0
1 77045 0.0
1 77046 0.0
1 77047 0.0
1 77048 0.0
1 77050 0.0
1 77051 0.0
1 77057 0.0
1 77058 0.0
1 77060 0.0
1 77061 0.0
1 77062 0.0
1 77063 0.0
1 77067 0.0
1 77072 0.0
1 77073 0.0
1 77074 0.0
1 77076 0.0
1 77077 0.0
1 77078 0.0
1 77079 0.0
1 77083 0.0
1 77088 0.0
1 77089 0.0
1 77092 0.0
1 77093 0.0
1 77094 0.0
1 77095 0.0
1 77096 0.0
1 77098 0.0
1 77099 0.0
1 77103 0.0
1 77104 0.0
1 77105 0.0
1 77108 0.0
1 77109 0.0
1 77112 0.0
1 77113 0.0
1 77116 0.0
1 77117 0.0
1 77118 0.0
1 77120 0.0
1 77121 0.0
1 77122 0.0
1 77123 0.0
1 77126 0.0
1 77127 0.0
1 77130 0.0
1 77131 0.0
1 77134 0.0
1 77135 0.0
1 77139 0.0
1 77144 0.0
1 77145 0.0
1 77148 0.0
1 77149 0.0
1 77152 0.0
1 77153 0.0
1 77156 0.0
1 77157 0.0
1 77158 0.0
1 77159 0.0
1 77160 0.0
1 77165 0.0
1 77167 0.0
1 77168 0.0
1 77170 0.0
1 77172 0.0
1 77173 0.0
1 77175 0.0
1 77178 0.0
1 77180 0.0
1 77181 0.0
1 77185 0.0
1 77186 0.0
1 77187 0.0
1 77188 0.0
1 77193 0.0
1 77195 0.0
1 77196 0.0
1 77198 0.0
1 77200 0.0
1 77201 0.0
1 77205 0.0
1 77206 0.0
1 77207 0.0
1 77208 0.0
1 77210 0.0
1 77213 0.0
1 77215 0.0
1 77218 0.0
1 77220 0.0
1 77221 0.0
1 77225 0.0
1 77227 0.0
1 77228 0.0
1 77230 0.0
1 77232 0.0
1 77233 0.0
1 77235 0.0
1 77238 0.0
1 77239 0.0
1 77240 0.0
1 77245 0.0
1 77247 0.0
1 77248 0.0
1 77250 0.0
1 77252 0.0
1 77253 0.0
1 77257 0.0
1 77258 0.0
1 77259 0.0
1 77260 0.0
1 77262 0.0
1 77265 0.0
1 77266 0.0
1 77269 0.0
1 77270 0.0
1 77273 0.0
1 77275 0.0
1 77279 0.0
1 77280 0.0
1 77283 0.0
1 77284 0.0
1 77287 0.0
1 77288 0.0
1 77290 0.0
1 77292 0.0
1 77293 0.0
1 77297 0.0
1 77299 0.0
1 77300 0.0
1 77302 0.0
1 77303 0.0
1 77304 0.0
1 77306 0.0
1 77309 0.0
1 77311 0.0
1 77314 0.0
1 77316 0.0
1 77317 0.0
1 77319 0.0
1 77322 0.0
1 77324 0.0
1 77325 0.0
1 77327 0.0
1 77330 0.0
1 77332 0.0
1 77333 0.0
1 77334 0.0
1 77335 0.0
1 77337 0.0
1 77340 0.0
1 77341 0.0
1 77342 0.0
1 77346 0.0
1 77347 0.0
1 77351 0.0
1 77352 0.0
1 77353 0.0
1 77354 0.0
1 77356 0.0
1 77357 0.0
1 77359 0.0
1 77362 0.0
1 77364 0.0
1 77365 0.0
1 77366 0.0
1 77367 0.0
1 77373 0.0
1 77374 0.0
1 77375 0.0
1 77376 0.0
1 77381 0.0
1 77383 0.0
1 77384 0.0
1 77386 0.0
1 77388 0.0
1 77389 0.0
1 77393 0.0
1 77395 0.0
1 77396 0.0
1 77398 0.0
1 77400 0.0
1 77401 0.0
1 77405 0.0
1 77406 0.0
1 77408 0.0
1 77409 0.0
1 77410 0.0
1 77411 0.0
1 77415 0.0
1 77420 0.0
1 77421 0.0
1 77424 0.0
1 77425 0.0
1 77428 0.0
1 77429 0.0
1 77432 0.0
1 77433 0.0
1 77436 0.0
1 77437 0.0
1 77440 0.0
1 77441 0.0
1 77444 0.0
1 77445 0.0
1 77448 0.0
1 77449 0.0
1 77452 0.0
1 77453 0.0
1 77456 0.0
1 77457 0.0
1 77460 0.0
1 77461 0.0
1 77464 0.0
1 77465 0.0
1 77468 0.0
1 77469 0.0
1 77472 0.0
1 77473 0.0
1 77476 0.0
1 77478 0.0
1 77479 0.0
1 77482 0.0
1 77483 0.0
1 77486 0.0
1 77487 0.0
1 77490 0.0
1 77491 0.0
1 77494 0.0
1 77495 0.0
1 77498 0.0
1 77499 0.0
1 77501 0.0
1 77504 0.0
1 77505 0.0
1 77508 0.0
1 77509 0.0
1 77512 0.0
1 77513 0.0
1 77514 0.0
1 77518 0.0
1 77519 0.0
1 77522 0.0
1 77523 0.0
1 77526 0.0
1 77527 0.0
1 77529 0.0
1 77532 0.0
1 77533 0.0
1 77536 0.0
1 77537 0.0
1 77540 0.0
1 77542 0.0
1 77543 0.0
1 77546 0.0
1 77547 0.0
1 77549 0.0
1 77552 0.0
1 77553 0.0
1 77554 0.0
1 77558 0.0
1 77559 0.0
1 77563 0.0
1 77564 0.0
1 77565 0.0
1 77568 0.0
1 77569 0.0
1 77570 0.0
1 77574 0.0
1 77575 0.0
1 77579 0.0
1 77580 0.0
1 77581 0.0
1 77584 0.0
1 77585 0.0
1 77588 0.0
1 77590 0.0
1 77591 0.0
1 77594 0.0
1 77595 0.0
1 77599 0.0
1 77600 0.0
1 77601 0.0
1 77604 0.0
1 77605 0.0
1 77608 0.0
1 77609 0.0
1 77610 0.0
1 77612 0.0
1 77613 0.0
1 77617 0.0
1 77618 0.0
1 77619 0.0
1 77620 0.0
1 77625 0.0
1 77626 0.0
1 77627 0.0
1 77628 0.0
1 77633 0.0
1 77634 0.0
1 77635 0.0
1 77636 0.0
1 77641 0.0
1 77644 0.0
1 77645 0.0
1 77646 0.0
1 77648 0.0
1 77649 0.0
1 77650 0.0
1 77651 0.0
1 77654 0.0
1 77655 0.0
1 77658 0.0
1 77659 0.0
1 77662 0.0
1 77663 0.0
1 77666 0.0
1 77667 0.0
1 77670 0.0
1 77671 0.0
1 77674 0.0
1 77675 0.0
1 77679 0.0
1 77684 0.0
1 77685 0.0
1 77686 0.0
1 77687 0.0
1 77688 0.0
1 77691 0.0
1 77696 0.0
1 77697 0.0
1 77698 0.0
1 77699 0.0
1 77700 0.0
1 77703 0.0
1 77708 0.0
1 77709 0.0
1 77710 0.0
1 77711 0.0
1 77712 0.0
1 77714 0.0
1 77715 0.0
1 77721 0.0
1 77724 0.0
1 77725 0.0
1 77726 0.0
1 77727 0.0
1 77728 0.0
1 77730 0.0
1 77731 0.0
1 77735 0.0
1 77740 0.0
1 77741 0.0
1 77744 0.0
1 77745 0.0
1 77746 0.0
1 77747 0.0
1 77748 0.0
1 77750 0.0
1 77751 0.0
1 77754 0.0
1 77755 0.0
1 77758 0.0
1 77759 0.0
1 77763 0.0
1 77768 0.0
1 77769 0.0
1 77772 0.0
1 77773 0.0
1 77776 0.0
1 77777 0.0
1 77778 0.0
1 77780 0.0
1 77781 0.0
1 77782 0.0
1 77783 0.0
1 77786 0.0
1 77787 0.0
1 77793 0.0
1 77794 0.0
1 77796 0.0
1 77797 0.0
1 77799 0.0
1 77802 0.0
1 77807 0.0
1 77808 0.0
1 77810 0.0
1 77811 0.0
1 77813 0.0
1 77816 0.0
1 77818 0.0
1 77819 0.0
1 77821 0.0
1 77822 0.0
1 77827 0.0
1 77828 0.0
1 77829 0.0
1 77833 0.0
1 77835 0.0
1 77836 0.0
1 77839 0.0
1 77840 0.0
1 77843 0.0
1 77844 0.0
1 77846 0.0
1 77848 0.0
1 77849 0.0
1 77851 0.0
1 77854 0.0
1 77856 0.0
1 77857 0.0
1 77859 0.0
1 77864 0.0
1 77865 0.0
1 77866 0.0
1 77867 0.0
1 77868 0.0
1 77870 0.0
1 77873 0.0
1 77874 0.0
1 77875 0.0
1 77876 0.0
1 77879 0.0
1 77882 0.0
1 77884 0.0
1 77885 0.0
1 77887 0.0
1 77890 0.0
1 77892 0.0
1 77893 0.0
1 77895 0.0
1 77900 0.0
1 77901 0.0
1 77902 0.0
1 77903 0.0
1 77904 0.0
1 77909 0.0
1 77910 0.0
1 77911 0.0
1 77912 0.0
1 77917 0.0
1 77918 0.0
1 77919 0.0
1 77920 0.0
1 77923 0.0
1 77928 0.0
1 77929 0.0
1 77932 0.0
1 77933 0.0
1 77934 0.0
1 77936 0.0
1 77937 0.0
1 77938 0.0
1 77939 0.0
1 77942 0.0
1 77943 0.0
1 77946 0.0
1 77947 0.0
1 77950 0.0
1 77951 0.0
1 77954 0.0
1 77955 0.0
1 77959 0.0
1 77964 0.0
1 77965 0.0
1 77968 0.0
1 77969 0.0
1 77970 0.0
1 77972 0.0
1 77973 0.0
1 77974 0.0
1 77975 0.0
1 77978 0.0
1 77979 0.0
1 77985 0.0
1 77988 0.0
1 77989 0.0
1 77990 0.0
1 77992 0.0
1 77993 0.0
1 77994 0.0
1 77995 0.0
1 78001 0.0
1 78004 0.0
1 78005 0.0
1 78006 0.0
1 78007 0.0
1 78008 0.0
1 78011 0.0
1 78016 0.0
1 78017 0.0
1 78018 0.0
1 78020 0.0
1 78021 0.0
1 78022 0.0
1 78023 0.0
1 78029 0.0
1 78032 0.0
1 78033 0.0
1 78036 0.0
1 78038 0.0
1 78039 0.0
1 78041 0.0
1 78042 0.0
1 78047 0.0
1 78048 0.0
1 78049 0.0
1 78052 0.0
1 78053 0.0
1 78056 0.0
1 78057 0.0
1 78058 0.0
1 78060 0.0
1 78061 0.0
1 78062 0.0
1 78063 0.0
1 78066 0.0
1 78069 0.0
1 78070 0.0
1 78073 0.0
1 78075 0.0
1 78078 0.0
1 78080 0.0
1 78081 0.0
1 78083 0.0
1 78086 0.0
1 78088 0.0
1 78089 0.0
1 78090 0.0
1 78091 0.0
1 78097 0.0
1 78098 0.0
1 78100 0.0
1 78101 0.0
1 78102 0.0
1 78103 0.0
1 78107 0.0
1 78112 0.0
1 78113 0.0
1 78116 0.0
1 78117 0.0
1 78120 0.0
1 78122 0.0
1 78123 0.0
1 78126 0.0
1 78127 0.0
1 78129 0.0
1 78132 0.0
1 78133 0.0
1 78134 0.0
1 78135 0.0
1 78136 0.0
1 78138 0.0
1 78139 0.0
1 78143 0.0
1 78148 0.0
1 78149 0.0
1 78152 0.0
1 78153 0.0
1 78154 0.0
1 78155 0.0
1 78156 0.0
1 78158 0.0
1 78159 0.0
1 78162 0.0
1 78163 0.0
1 78166 0.0
1 78167 0.0
1 78170 0.0
1 78171 0.0
1 78174 0.0
1 78175 0.0
1 78178 0.0
1 78179 0.0
1 78182 0.0
1 78183 0.0
1 78185 0.0
1 78188 0.0
1 78189 0.0
1 78192 0.0
1 78193 0.0
1 78196 0.0
1 78197 0.0
1 78200 0.0
1 78201 0.0
1 78202 0.0
1 78206 0.0
1 78207 0.0
1 78210 0.0
1 78211 0.0
1 78217 0.0
1 78220 0.0
1 78221 0.0
1 78224 0.0
1 78225 0.0
1 78228 0.0
1 78229 0.0
1 78230 0.0
1 78231 0.0
1 78232 0.0
1 78234 0.0
1 78235 0.0
1 78238 0.0
1 78239 0.0
1 78242 0.0
1 78243 0.0
1 78246 0.0
1 78247 0.0
1 78250 0.0
1 78251 0.0
1 78254 0.0
1 78255 0.0
1 78259 0.0
1 78260 0.0
1 78261 0.0
1 78264 0.0
1 78266 0.0
1 78267 0.0
1 78271 0.0
1 78272 0.0
1 78273 0.0
1 78276 0.0
1 78278 0.0
1 78279 0.0
1 78283 0.0
1 78284 0.0
1 78285 0.0
1 78286 0.0
1 78291 0.0
1 78292 0.0
1 78293 0.0
1 78294 0.0
1 78297 0.0
1 78300 0.0
1 78303 0.0
1 78304 0.0
1 78305 0.0
1 78306 0.0
1 78311 0.0
1 78312 0.0
1 78313 0.0
1 78314 0.0
1 78315 0.0
1 78316 0.0
1 78319 0.0
1 78320 0.0
1 78321 0.0
1 78322 0.0
1 78323 0.0
1 78324 0.0
1 78327 0.0
1 78330 0.0
1 78332 0.0
1 78333 0.0
1 78334 0.0
1 78335 0.0
1 78338 0.0
1 78339 0.0
1 78342 0.0
1 78343 0.0
1 78346 0.0
1 78347 0.0
1 78350 0.0
1 78351 0.0
1 78355 0.0
1 78356 0.0
1 78357 0.0
1 78360 0.0
1 78361 0.0
1 78362 0.0
1 78366 0.0
1 78368 0.0
1 78369 0.0
1 78370 0.0
1 78371 0.0
1 78374 0.0
1 78375 0.0
1 78378 0.0
1 78379 0.0
1 78385 0.0
1 78386 0.0
1 78387 0.0
1 78389 0.0
1 78392 0.0
1 78393 0.0
1 78396 0.0
1 78398 0.0
1 78399 0.0
1 78401 0.0
1 78404 0.0
1 78406 0.0
1 78407 0.0
1 78409 0.0
1 78412 0.0
1 78414 0.0
1 78415 0.0
1 78419 0.0
1 78420 0.0
1 78421 0.0
1 78422 0.0
1 78427 0.0
1 78428 0.0
1 78431 0.0
1 78432 0.0
1 78434 0.0
1 78435 0.0
1 78437 0.0
1 78438 0.0
1 78441 0.0
1 78442 0.0
1 78447 0.0
1 78448 0.0
1 78450 0.0
1 78451 0.0
1 78454 0.0
1 78455 0.0
1 78458 0.0
1 78459 0.0
1 78462 0.0
1 78463 0.0
1 78469 0.0
1 78471 0.0
1 78472 0.0
1 78474 0.0
1 78476 0.0
1 78477 0.0
1 78481 0.0
1 78482 0.0
1 78483 0.0
1 78484 0.0
1 78486 0.0
1 78489 0.0
1 78490 0.0
1 78491 0.0
1 78497 0.0
1 78498 0.0
1 78499 0.0
1 78500 0.0
1 78505 0.0
1 78506 0.0
1 78507 0.0
1 78508 0.0
1 78513 0.0
1 78514 0.0
1 78520 0.0
1 78521 0.0
1 78522 0.0
1 78523 0.0
1 78526 0.0
1 78527 0.0
1 78529 0.0
1 78532 0.0
1 78533 0.0
1 78536 0.0
1 78537 0.0
1 78540 0.0
1 78542 0.0
1 78543 0.0
1 78546 0.0
1 78547 0.0
1 78550 0.0
1 78551 0.0
1 78553 0.0
1 78556 0.0
1 78557 0.0
1 78560 0.0
1 78561 0.0
1 78564 0.0
1 78565 0.0
1 78568 0.0
1 78569 0.0
1 78572 0.0
1 78573 0.0
1 78576 0.0
1 78577 0.0
1 78580 0.0
1 78581 0.0
1 78584 0.0
1 78585 0.0
1 78588 0.0
1 78589 0.0
1 78590 0.0
1 78594 0.0
1 78595 0.0
1 78598 0.0
1 78599 0.0
1 78602 0.0
1 78603 0.0
1 78606 0.0
1 78607 0.0
1 78610 0.0
1 78611 0.0
1 78617 0.0
1 78618 0.0
1 78620 0.0
1 78621 0.0
1 78623 0.0
1 78628 0.0
1 78629 0.0
1 78630 0.0
1 78631 0.0
1 78632 0.0
1 78637 0.0
1 78640 0.0
1 78641 0.0
1 78644 0.0
1 78645 0.0
1 78648 0.0
1 78649 0.0
1 78652 0.0
1 78653 0.0
1 78656 0.0
1 78657 0.0
1 78660 0.0
1 78661 0.0
1 78664 0.0
1 78665 0.0
1 78668 0.0
1 78669 0.0
1 78672 0.0
1 78673 0.0
1 78674 0.0
1 78675 0.0
1 78676 0.0
1 78679 0.0
1 78680 0.0
1 78681 0.0
1 78682 0.0
1 78687 0.0
1 78688 0.0
1 78689 0.0
1 78690 0.0
1 78695 0.0
1 78696 0.0
1 78697 0.0
1 78700 0.0
1 78702 0.0
1 78703 0.0
1 78705 0.0
1 78708 0.0
1 78710 0.0
1 78711 0.0
1 78713 0.0
1 78716 0.0
1 78718 0.0
1 78719 0.0
1 78723 0.0
1 78724 0.0
1 78725 0.0
1 78726 0.0
1 78731 0.0
1 78732 0.0
1 78733 0.0
1 78734 0.0
1 78739 0.0
1 78740 0.0
1 78741 0.0
1 78742 0.0
1 78746 0.0
1 78747 0.0
1 78749 0.0
1 78752 0.0
1 78754 0.0
1 78755 0.0
1 78757 0.0
1 78758 0.0
1 78763 0.0
1 78764 0.0
1 78765 0.0
1 78766 0.0
1 78769 0.0
1 78772 0.0
1 78775 0.0
1 78776 0.0
1 78777 0.0
1 78778 0.0
1 78781 0.0
1 78784 0.0
1 78786 0.0
1 78787 0.0
1 78789 0.0
1 78790 0.0
1 78793 0.0
1 78795 0.0
1 78796 0.0
1 78798 0.0
1 78799 0.0
1 78800 0.0
1 78805 0.0
1 78806 0.0
1 78808 0.0
1 78809 0.0
1 78811 0.0
1 78814 0.0
1 78816 0.0
1 78817 0.0
1 78819 0.0
1 78822 0.0
1 78825 0.0
1 78826 0.0
1 78827 0.0
1 78828 0.0
1 78833 0.0
1 78834 0.0
1 78835 0.0
1 78836 0.0
1 78838 0.0
1 78839 0.0
1 78841 0.0
1 78844 0.0
1 78846 0.0
1 78847 0.0
1 78853 0.0
1 78854 0.0
1 78855 0.0
1 78860 0.0
1 78861 0.0
1 78864 0.0
1 78865 0.0
1 78868 0.0
1 78869 0.0
1 78870 0.0
1 78871 0.0
1 78872 0.0
1 78875 0.0
1 78880 0.0
1 78881 0.0
1 78882 0.0
1 78884 0.0
1 78885 0.0
1 78886 0.0
1 78887 0.0
1 78893 0.0
1 78896 0.0
1 78897 0.0
1 78898 0.0
1 78899 0.0
1 78900 0.0
1 78903 0.0
1 78908 0.0
1 78909 0.0
1 78910 0.0
1 78912 0.0
1 78913 0.0
1 78914 0.0
1 78915 0.0
1 78919 0.0
1 78924 0.0
1 78925 0.0
1 78926 0.0
1 78928 0.0
1 78929 0.0
1 78930 0.0
1 78931 0.0
1 78935 0.0
1 78940 0.0
1 78941 0.0
1 78944 0.0
1 78945 0.0
1 78946 0.0
1 78947 0.0
1 78948 0.0
1 78950 0.0
1 78951 0.0
1 78957 0.0
1 78960 0.0
1 78961 0.0
1 78962 0.0
1 78963 0.0
1 78964 0.0
1 78966 0.0
1 78967 0.0
1 78973 0.0
1 78976 0.0
1 78977 0.0
1 78978 0.0
1 78979 0.0
1 78980 0.0
1 78982 0.0
1 78985 0.0
1 78987 0.0
1 78990 0.0
1 78991 0.0
1 78992 0.0
1 78994 0.0
1 78997 0.0
1 78999 0.0
1 79002 0.0
1 79003 0.0
1 79004 0.0
1 79006 0.0
1 79009 0.0
1 79011 0.0
1 79014 0.0
1 79015 0.0
1 79016 0.0
1 79021 0.0
1 79022 0.0
1 79023 0.0
1 79024 0.0
1 79029 0.0
1 79031 0.0
1 79032 0.0
1 79034 0.0
1 79036 0.0
1 79037 0.0
1 79039 0.0
1 79042 0.0
1 79044 0.0
1 79045 0.0
1 79047 0.0
1 79050 0.0
1 79052 0.0
1 79053 0.0
1 79055 0.0
1 79060 0.0
1 79061 0.0
1 79062 0.0
1 79063 0.0
1 79064 0.0
1 79067 0.0
1 79072 0.0
1 79073 0.0
1 79074 0.0
1 79075 0.0
1 79076 0.0
1 79079 0.0
1 79084 0.0
1 79085 0.0
1 79086 0.0
1 79087 0.0
1 79088 0.0
1 79091 0.0
1 79096 0.0
1 79097 0.0
1 79098 0.0
1 79099 0.0
1 79100 0.0
1 79103 0.0
1 79108 0.0
1 79109 0.0
1 79110 0.0
1 79111 0.0
1 79112 0.0
1 79114 0.0
1 79115 0.0
1 79121 0.0
1 79122 0.0
1 79124 0.0
1 79125 0.0
1 79126 0.0
1 79127 0.0
1 79133 0.0
1 79134 0.0
1 79136 0.0
1 79137 0.0
1 79138 0.0
1 79139 0.0
1 79145 0.0
1 79146 0.0
1 79148 0.0
1 79149 0.0
1 79150 0.0
1 79151 0.0
1 79157 0.0
1 79158 0.0
1 79160 0.0
1 79161 0.0
1 79162 0.0
1 79163 0.0
1 79169 0.0
1 79170 0.0
1 79172 0.0
1 79173 0.0
1 79175 0.0
1 79178 0.0
1 79180 0.0
1 79181 0.0
1 79183 0.0
1 79188 0.0
1 79189 0.0
1 79190 0.0
1 79191 0.0
1 79192 0.0
1 79197 0.0
1 79198 0.0
1 79199 0.0
1 79200 0.0
1 79203 0.0
1 79206 0.0
1 79208 0.0
1 79209 0.0
1 79211 0.0
1 79214 0.0
1 79216 0.0
1 79217 0.0
1 79218 0.0
1 79219 0.0
1 79225 0.0
1 79226 0.0
1 79227 0.0
1 79228 0.0
1 79230 0.0
1 79231 0.0
1 79237 0.0
1 79240 0.0
1 79241 0.0
1 79242 0.0
1 79243 0.0
1 79244 0.0
1 79246 0.0
1 79247 0.0
1 79253 0.0
1 79256 0.0
1 79257 0.0
1 79258 0.0
1 79259 0.0
1 79260 0.0
1 79262 0.0
1 79263 0.0
1 79266 0.0
1 79267 0.0
1 79271 0.0
1 79272 0.0
1 79273 0.0
1 79276 0.0
1 79277 0.0
1 79280 0.0
1 79281 0.0
1 79284 0.0
1 79286 0.0
1 79287 0.0
1 79291 0.0
1 79292 0.0
1 79295 0.0
1 79299 0.0
1 79300 0.0
1 79302 0.0
1 79304 0.0
1 79305 0.0
1 79306 0.0
1 79309 0.0
1 79310 0.0
1 79313 0.0
1 79314 0.0
1 79317 0.0
1 79318 0.0
1 79321 0.0
1 79324 0.0
1 79325 0.0
1 79327 0.0
1 79328 0.0
1 79329 0.0
1 79330 0.0
1 79331 0.0
1 79334 0.0
1 79335 0.0
1 79338 0.0
1 79342 0.0
1 79345 0.0
1 79346 0.0
1 79349 0.0
1 79350 0.0
1 79353 0.0
1 79354 0.0
1 79357 0.0
1 79358 0.0
1 79361 0.0
1 79362 0.0
1 79365 0.0
1 79369 0.0
1 79371 0.0
1 79372 0.0
1 79374 0.0
1 79375 0.0
1 79377 0.0
1 79380 0.0
1 79382 0.0
1 79383 0.0
1 79388 0.0
1 79392 0.0
1 79393 0.0
1 79394 0.0
1 79397 0.0
1 79398 0.0
1 79401 0.0
1 79402 0.0
1 79405 0.0
1 79406 0.0
1 79409 0.0
1 79410 0.0
1 79413 0.0
1 79414 0.0
1 79417 0.0
1 79419 0.0
1 79424 0.0
1 79425 0.0
1 79426 0.0
1 79427 0.0
1 79428 0.0
1 79433 0.0
1 79434 0.0
1 79435 0.0
1 79436 0.0
1 79441 0.0
1 79443 0.0
1 79444 0.0
1 79446 0.0
1 79448 0.0
1 79449 0.0
1 79453 0.0
1 79455 0.0
1 79456 0.0
1 79458 0.0
1 79460 0.0
1 79461 0.0
1 79462 0.0
1 79465 0.0
1 79467 0.0
1 79472 0.0
1 79473 0.0
1 79474 0.0
1 79476 0.0
1 79477 0.0
1 79478 0.0
1 79479 0.0
1 79485 0.0
1 79486 0.0
1 79488 0.0
1 79489 0.0
1 79490 0.0
1 79491 0.0
1 79497 0.0
1 79498 0.0
1 79499 0.0
1 79500 0.0
1 79503 0.0
1 79508 0.0
1 79509 0.0