BEGIN OPTIONS
  #I2KN
  PRINT_INPUT
  #PRINT_FLOWS
END OPTIONS

BEGIN DIMENSIONS
  NUMGNC 48780
  NUMALPHAJ 2
END DIMENSIONS

BEGIN GNCDATA
  1 65  1 82859  1 83013  1 83014   0.166666666667 0.166666666667
  1 65  1 82862  1 66  1 82862   0.25 0.0
  1 65  1 83013  1 82859  1 82862   0.166666666667 0.166666666667
  1 65  1 83014  1 111  1 83014   0.25 0.0
  1 66  1 82863  1 65  1 82863   0.25 0.0
  1 66  1 82866  1 67  1 82866   0.25 0.0
  1 67  1 82867  1 66  1 82867   0.25 0.0
  1 67  1 82870  1 68  1 82870   0.25 0.0
  1 68  1 82871  1 67  1 82871   0.25 0.0
  1 68  1 82874  1 69  1 82874   0.25 0.0
  1 69  1 82875  1 68  1 82875   0.25 0.0
  1 69  1 82878  1 70  1 82878   0.25 0.0
  1 70  1 82879  1 69  1 82879   0.25 0.0
  1 70  1 82882  1 71  1 82882   0.25 0.0
  1 71  1 82883  1 70  1 82883   0.25 0.0
  1 71  1 82886  1 72  1 82886   0.25 0.0
  1 72  1 82887  1 71  1 82887   0.25 0.0
  1 72  1 82890  1 73  1 82890   0.25 0.0
  1 73  1 82891  1 72  1 82891   0.25 0.0
  1 73  1 82892  1 74  1 82892   0.25 0.0
  1 74  1 82893  1 73  1 82893   0.25 0.0
  1 74  1 82894  1 75  1 82894   0.25 0.0
  1 75  1 82895  1 74  1 82895   0.25 0.0
  1 75  1 82896  1 76  1 82896   0.25 0.0
  1 76  1 82897  1 75  1 82897   0.25 0.0
  1 76  1 82898  1 83015  1 83016   0.166666666667 0.166666666667
  1 76  1 83015  1 122  1 83015   0.25 0.0
  1 76  1 83016  1 82897  1 82898   0.166666666667 0.166666666667
  1 100  1 82971  1 83080  1 83081   0.166666666667 0.166666666667
  1 100  1 82974  1 101  1 82974   0.25 0.0
  1 100  1 83080  1 82971  1 82974   0.166666666667 0.166666666667
  1 100  1 83081  1 83195  1 83196   0.166666666667 0.166666666667
  1 100  1 83195  1 83080  1 83081   0.166666666667 0.166666666667
  1 100  1 83196  1 101  1 83196   0.25 0.0
  1 101  1 82975  1 100  1 82975   0.25 0.0
  1 101  1 82978  1 102  1 82978   0.25 0.0
  1 102  1 82979  1 101  1 82979   0.25 0.0
  1 102  1 82982  1 103  1 82982   0.25 0.0
  1 103  1 82983  1 102  1 82983   0.25 0.0
  1 103  1 82986  1 104  1 82986   0.25 0.0
  1 104  1 82987  1 103  1 82987   0.25 0.0
  1 104  1 82990  1 105  1 82990   0.25 0.0
  1 105  1 82991  1 104  1 82991   0.25 0.0
  1 105  1 82994  1 106  1 82994   0.25 0.0
  1 106  1 82995  1 105  1 82995   0.25 0.0
  1 106  1 82998  1 107  1 82998   0.25 0.0
  1 107  1 82999  1 106  1 82999   0.25 0.0
  1 107  1 83002  1 108  1 83002   0.25 0.0
  1 108  1 83003  1 107  1 83003   0.25 0.0
  1 108  1 83006  1 109  1 83006   0.25 0.0
  1 109  1 83007  1 108  1 83007   0.25 0.0
  1 109  1 83010  1 110  1 83010   0.25 0.0
  1 110  1 83011  1 109  1 83011   0.25 0.0
  1 110  1 83014  1 111  1 83014   0.25 0.0
  1 123  1 83015  1 122  1 83015   0.25 0.0
  1 123  1 83018  1 83082  1 83083   0.166666666667 0.166666666667
  1 123  1 83082  1 167  1 83082   0.25 0.0
  1 123  1 83083  1 83015  1 83018   0.166666666667 0.166666666667
  1 145  1 48032  1 83196  1 83197   0.166666666667 0.166666666667
  1 145  1 48033  1 146  1 48033   0.25 0.0
  1 145  1 83196  1 101  1 83196   0.25 0.0
  1 145  1 83197  1 48032  1 48033   0.166666666667 0.166666666667
  1 146  1 83309  1 145  1 83309   0.25 0.0
  1 146  1 83310  1 147  1 83310   0.25 0.0
  1 156  1 83313  1 155  1 83313   0.25 0.0
  1 156  1 83314  1 157  1 83314   0.25 0.0
  1 157  1 83315  1 156  1 83315   0.25 0.0
  1 157  1 83316  1 158  1 83316   0.25 0.0
  1 158  1 83317  1 157  1 83317   0.25 0.0
  1 158  1 83318  1 159  1 83318   0.25 0.0
  1 159  1 83319  1 158  1 83319   0.25 0.0
  1 159  1 83320  1 160  1 83320   0.25 0.0
  1 160  1 104375  1 159  1 104375   0.25 0.0
  1 160  1 104376  1 161  1 104376   0.25 0.0
  1 168  1 83082  1 167  1 83082   0.25 0.0
  1 168  1 83084  1 83198  1 83199   0.166666666667 0.166666666667
  1 168  1 83198  1 104379  1 104380   0.166666666667 0.166666666667
  1 168  1 83199  1 83082  1 83084   0.166666666667 0.166666666667
  1 168  1 104379  1 167  1 104379   0.25 0.0
  1 168  1 104380  1 83198  1 83199   0.166666666667 0.166666666667
  1 169  1 83125  1 83206  1 83207   0.166666666667 0.166666666667
  1 169  1 83128  1 170  1 83128   0.25 0.0
  1 169  1 83206  1 83125  1 83128   0.166666666667 0.166666666667
  1 169  1 83207  1 204  1 83207   0.25 0.0
  1 170  1 83129  1 169  1 83129   0.25 0.0
  1 170  1 83132  1 83208  1 83209   0.166666666667 0.166666666667
  1 170  1 83208  1 205  1 83208   0.25 0.0
  1 170  1 83209  1 83129  1 83132   0.166666666667 0.166666666667
  1 185  1 83310  1 147  1 83310   0.25 0.0
  1 185  1 83311  1 83488  1 83489   0.166666666667 0.166666666667
  1 185  1 83488  1 83310  1 83311   0.166666666667 0.166666666667
  1 185  1 83489  1 186  1 83489   0.25 0.0
  1 193  1 83312  1 97298  1 97299   0.166666666667 0.166666666667
  1 193  1 83313  1 155  1 83313   0.25 0.0
  1 193  1 97298  1 192  1 97298   0.25 0.0
  1 193  1 97299  1 83312  1 83313   0.166666666667 0.166666666667
  1 194  1 83568  1 104376  1 104377   0.166666666667 0.166666666667
  1 194  1 83569  1 195  1 83569   0.25 0.0
  1 194  1 104376  1 161  1 104376   0.25 0.0
  1 194  1 104377  1 83568  1 83569   0.166666666667 0.166666666667
  1 195  1 83570  1 194  1 83570   0.25 0.0
  1 195  1 83571  1 196  1 83571   0.25 0.0
  1 196  1 83572  1 195  1 83572   0.25 0.0
  1 196  1 83573  1 197  1 83573   0.25 0.0
  1 197  1 83574  1 196  1 83574   0.25 0.0
  1 197  1 83575  1 198  1 83575   0.25 0.0
  1 198  1 83576  1 197  1 83576   0.25 0.0
  1 198  1 83577  1 199  1 83577   0.25 0.0
  1 199  1 83578  1 198  1 83578   0.25 0.0
  1 199  1 83579  1 200  1 83579   0.25 0.0
  1 200  1 83580  1 199  1 83580   0.25 0.0
  1 200  1 83581  1 104378  1 104379   0.166666666667 0.166666666667
  1 200  1 104378  1 83580  1 83581   0.166666666667 0.166666666667
  1 200  1 104379  1 167  1 104379   0.25 0.0
  1 201  1 43376  1 104380  1 104381   0.166666666667 0.166666666667
  1 201  1 43377  1 202  1 43377   0.25 0.0
  1 201  1 83198  1 104380  1 104381   0.166666666667 0.166666666667
  1 201  1 83201  1 202  1 83201   0.25 0.0
  1 201  1 104380  1 83198  1 83201   0.166666666667 0.166666666667
  1 201  1 104381  1 43376  1 43377   0.166666666667 0.166666666667
  1 202  1 43304  1 201  1 43304   0.25 0.0
  1 202  1 43305  1 203  1 43305   0.25 0.0
  1 202  1 83202  1 201  1 83202   0.25 0.0
  1 202  1 83203  1 203  1 83203   0.25 0.0
  1 203  1 43280  1 202  1 43280   0.25 0.0
  1 203  1 43281  1 204  1 43281   0.25 0.0
  1 203  1 83204  1 202  1 83204   0.25 0.0
  1 203  1 83207  1 204  1 83207   0.25 0.0
  1 204  1 83602  1 203  1 83602   0.25 0.0
  1 204  1 83603  1 205  1 83603   0.25 0.0
  1 206  1 83208  1 205  1 83208   0.25 0.0
  1 206  1 83211  1 83322  1 83323   0.166666666667 0.166666666667
  1 206  1 83322  1 230  1 83322   0.25 0.0
  1 206  1 83323  1 83208  1 83211   0.166666666667 0.166666666667
  1 220  1 83277  1 83459  1 83460   0.166666666667 0.166666666667
  1 220  1 83280  1 221  1 83280   0.25 0.0
  1 220  1 83459  1 83277  1 83280   0.166666666667 0.166666666667
  1 220  1 83460  1 244  1 83460   0.25 0.0
  1 221  1 48034  1 220  1 48034   0.25 0.0
  1 221  1 48035  1 83461  1 83462   0.166666666667 0.166666666667
  1 221  1 83461  1 245  1 83461   0.25 0.0
  1 221  1 83462  1 48034  1 48035   0.166666666667 0.166666666667
  1 222  1 83489  1 186  1 83489   0.25 0.0
  1 222  1 83490  1 83705  1 83706   0.166666666667 0.166666666667
  1 222  1 83705  1 83489  1 83490   0.166666666667 0.166666666667
  1 222  1 83706  1 223  1 83706   0.25 0.0
  1 228  1 97297  1 252  1 97297   0.25 0.0
  1 228  1 97298  1 192  1 97298   0.25 0.0
  1 229  1 83603  1 205  1 83603   0.25 0.0
  1 229  1 83604  1 83889  1 83890   0.166666666667 0.166666666667
  1 229  1 83889  1 83603  1 83604   0.166666666667 0.166666666667
  1 229  1 83890  1 230  1 83890   0.25 0.0
  1 231  1 83322  1 230  1 83322   0.25 0.0
  1 231  1 83325  1 83605  1 83606   0.166666666667 0.166666666667
  1 231  1 83605  1 255  1 83605   0.25 0.0
  1 231  1 83606  1 83322  1 83325   0.166666666667 0.166666666667
  1 244  1 83685  1 220  1 83685   0.25 0.0
  1 244  1 83686  1 270  1 83686   0.25 0.0
  1 246  1 83461  1 245  1 83461   0.25 0.0
  1 246  1 83463  1 83687  1 83688   0.166666666667 0.166666666667
  1 246  1 83687  1 272  1 83687   0.25 0.0
  1 246  1 83688  1 83461  1 83463   0.166666666667 0.166666666667
  1 247  1 83706  1 223  1 83706   0.25 0.0
  1 247  1 83707  1 83989  1 83990   0.166666666667 0.166666666667
  1 247  1 83989  1 83706  1 83707   0.166666666667 0.166666666667
  1 247  1 83990  1 248  1 83990   0.25 0.0
  1 253  1 83708  1 279  1 83708   0.25 0.0
  1 253  1 83709  1 97297  1 97300   0.166666666667 0.166666666667
  1 253  1 97297  1 252  1 97297   0.25 0.0
  1 253  1 97300  1 83708  1 83709   0.166666666667 0.166666666667
  1 254  1 83890  1 230  1 83890   0.25 0.0
  1 254  1 83891  1 284  1 83891   0.25 0.0
  1 256  1 83605  1 255  1 83605   0.25 0.0
  1 256  1 83608  1 257  1 83608   0.25 0.0
  1 257  1 83609  1 256  1 83609   0.25 0.0
  1 257  1 83612  1 258  1 83612   0.25 0.0
  1 258  1 83613  1 257  1 83613   0.25 0.0
  1 258  1 83615  1 83892  1 83893   0.166666666667 0.166666666667
  1 258  1 83892  1 288  1 83892   0.25 0.0
  1 258  1 83893  1 83613  1 83615   0.166666666667 0.166666666667
  1 270  1 83956  1 244  1 83956   0.25 0.0
  1 270  1 83957  1 97596  1 97597   0.166666666667 0.166666666667
  1 270  1 97596  1 83956  1 83957   0.166666666667 0.166666666667
  1 270  1 97597  1 271  1 97597   0.25 0.0
  1 271  1 97600  1 270  1 97600   0.25 0.0
  1 271  1 97601  1 272  1 97601   0.25 0.0
  1 272  1 97604  1 271  1 97604   0.25 0.0
  1 272  1 97605  1 273  1 97605   0.25 0.0
  1 273  1 83687  1 272  1 83687   0.25 0.0
  1 273  1 83689  1 83958  1 83959   0.166666666667 0.166666666667
  1 273  1 83958  1 97608  1 97609   0.166666666667 0.166666666667
  1 273  1 83959  1 83687  1 83689   0.166666666667 0.166666666667
  1 273  1 97608  1 272  1 97608   0.25 0.0
  1 273  1 97609  1 83958  1 83959   0.166666666667 0.166666666667
  1 274  1 48025  1 83990  1 83991   0.166666666667 0.166666666667
  1 274  1 48026  1 275  1 48026   0.25 0.0
  1 274  1 83990  1 248  1 83990   0.25 0.0
  1 274  1 83991  1 48025  1 48026   0.166666666667 0.166666666667
  1 275  1 97624  1 274  1 97624   0.25 0.0
  1 275  1 97625  1 276  1 97625   0.25 0.0
  1 280  1 83708  1 279  1 83708   0.25 0.0
  1 280  1 83711  1 281  1 83711   0.25 0.0
  1 281  1 83712  1 280  1 83712   0.25 0.0
  1 281  1 83715  1 282  1 83715   0.25 0.0
  1 282  1 83716  1 281  1 83716   0.25 0.0
  1 282  1 83719  1 83992  1 83993   0.166666666667 0.166666666667
  1 282  1 83992  1 306  1 83992   0.25 0.0
  1 282  1 83993  1 83716  1 83719   0.166666666667 0.166666666667
  1 283  1 29928  1 97549  1 97550   0.166666666667 0.166666666667
  1 283  1 29929  1 97551  1 97552   0.166666666667 0.166666666667
  1 283  1 43445  1 97549  1 97550   0.166666666667 0.166666666667
  1 283  1 43446  1 97551  1 97552   0.166666666667 0.166666666667
  1 283  1 97549  1 43445  1 43446   0.166666666667 0.166666666667
  1 283  1 97550  1 29928  1 29929   0.166666666667 0.166666666667
  1 283  1 97551  1 29928  1 29929   0.166666666667 0.166666666667
  1 283  1 97552  1 43445  1 43446   0.166666666667 0.166666666667
  1 284  1 44009  1 254  1 44009   0.25 0.0
  1 284  1 44010  1 316  1 44010   0.25 0.0
  1 288  1 73334  1 84159  1 84160   0.166666666667 0.166666666667
  1 288  1 73335  1 258  1 73335   0.25 0.0
  1 288  1 84159  1 287  1 84159   0.25 0.0
  1 288  1 84160  1 73334  1 73335   0.166666666667 0.166666666667
  1 300  1 84308  1 97625  1 97626   0.166666666667 0.166666666667
  1 300  1 84309  1 301  1 84309   0.25 0.0
  1 300  1 97625  1 276  1 97625   0.25 0.0
  1 300  1 97626  1 84308  1 84309   0.166666666667 0.166666666667
  1 307  1 83992  1 306  1 83992   0.25 0.0
  1 307  1 83995  1 308  1 83995   0.25 0.0
  1 308  1 83996  1 307  1 83996   0.25 0.0
  1 308  1 83999  1 309  1 83999   0.25 0.0
  1 309  1 84000  1 308  1 84000   0.25 0.0
  1 309  1 84003  1 310  1 84003   0.25 0.0
  1 310  1 84004  1 309  1 84004   0.25 0.0
  1 310  1 84007  1 311  1 84007   0.25 0.0
  1 311  1 84008  1 310  1 84008   0.25 0.0
  1 311  1 84011  1 312  1 84011   0.25 0.0
  1 312  1 84012  1 311  1 84012   0.25 0.0
  1 312  1 84015  1 313  1 84015   0.25 0.0
  1 313  1 84016  1 312  1 84016   0.25 0.0
  1 313  1 84019  1 314  1 84019   0.25 0.0
  1 314  1 84020  1 313  1 84020   0.25 0.0
  1 314  1 84023  1 315  1 84023   0.25 0.0
  1 315  1 29927  1 84312  1 84313   0.166666666667 0.166666666667
  1 315  1 29928  1 97547  1 97550   0.166666666667 0.166666666667
  1 315  1 84312  1 314  1 84312   0.25 0.0
  1 315  1 84313  1 29927  1 29928   0.166666666667 0.166666666667
  1 315  1 97547  1 314  1 97547   0.25 0.0
  1 315  1 97550  1 29927  1 29928   0.166666666667 0.166666666667
  1 316  1 44027  1 284  1 44027   0.25 0.0
  1 316  1 44028  1 84337  1 84338   0.166666666667 0.166666666667
  1 316  1 84337  1 44027  1 44028   0.166666666667 0.166666666667
  1 316  1 84338  1 317  1 84338   0.25 0.0
  1 319  1 84158  1 84341  1 84342   0.166666666667 0.166666666667
  1 319  1 84159  1 287  1 84159   0.25 0.0
  1 319  1 84341  1 318  1 84341   0.25 0.0
  1 319  1 84342  1 84158  1 84159   0.166666666667 0.166666666667
  1 331  1 84084  1 84198  1 84199   0.166666666667 0.166666666667
  1 331  1 84086  1 104446  1 104447   0.166666666667 0.166666666667
  1 331  1 84198  1 84084  1 84086   0.166666666667 0.166666666667
  1 331  1 84199  1 361  1 84199   0.25 0.0
  1 331  1 104446  1 361  1 104446   0.25 0.0
  1 331  1 104447  1 84084  1 84086   0.166666666667 0.166666666667
  1 332  1 84309  1 301  1 84309   0.25 0.0
  1 332  1 84310  1 84451  1 84452   0.166666666667 0.166666666667
  1 332  1 84451  1 84309  1 84310   0.166666666667 0.166666666667
  1 332  1 84452  1 333  1 84452   0.25 0.0
  1 345  1 84311  1 375  1 84311   0.25 0.0
  1 345  1 84312  1 314  1 84312   0.25 0.0
  1 346  1 84338  1 317  1 84338   0.25 0.0
  1 346  1 84339  1 84498  1 84499   0.166666666667 0.166666666667
  1 346  1 84498  1 84338  1 84339   0.166666666667 0.166666666667
  1 346  1 84499  1 347  1 84499   0.25 0.0
  1 347  1 84340  1 84502  1 84503   0.166666666667 0.166666666667
  1 347  1 84341  1 318  1 84341   0.25 0.0
  1 347  1 84502  1 346  1 84502   0.25 0.0
  1 347  1 84503  1 84340  1 84341   0.166666666667 0.166666666667
  1 361  1 84388  1 331  1 84388   0.25 0.0
  1 361  1 84389  1 389  1 84389   0.25 0.0
  1 362  1 84390  1 390  1 84390   0.25 0.0
  1 362  1 84391  1 104446  1 104449   0.166666666667 0.166666666667
  1 362  1 104446  1 361  1 104446   0.25 0.0
  1 362  1 104449  1 84390  1 84391   0.166666666667 0.166666666667
  1 363  1 84452  1 333  1 84452   0.25 0.0
  1 363  1 84453  1 84590  1 84591   0.166666666667 0.166666666667
  1 363  1 84590  1 84452  1 84453   0.166666666667 0.166666666667
  1 363  1 84591  1 364  1 84591   0.25 0.0
  1 364  1 97899  1 363  1 97899   0.25 0.0
  1 364  1 97900  1 365  1 97900   0.25 0.0
  1 365  1 97903  1 364  1 97903   0.25 0.0
  1 365  1 97904  1 366  1 97904   0.25 0.0
  1 366  1 97907  1 365  1 97907   0.25 0.0
  1 366  1 97908  1 367  1 97908   0.25 0.0
  1 367  1 97911  1 366  1 97911   0.25 0.0
  1 367  1 97912  1 368  1 97912   0.25 0.0
  1 368  1 97915  1 367  1 97915   0.25 0.0
  1 368  1 97916  1 369  1 97916   0.25 0.0
  1 369  1 97919  1 368  1 97919   0.25 0.0
  1 369  1 97920  1 370  1 97920   0.25 0.0
  1 370  1 84594  1 369  1 84594   0.25 0.0
  1 370  1 84595  1 371  1 84595   0.25 0.0
  1 371  1 84597  1 370  1 84597   0.25 0.0
  1 371  1 84598  1 372  1 84598   0.25 0.0
  1 372  1 84599  1 371  1 84599   0.25 0.0
  1 372  1 84600  1 373  1 84600   0.25 0.0
  1 373  1 84601  1 372  1 84601   0.25 0.0
  1 373  1 84602  1 374  1 84602   0.25 0.0
  1 374  1 84603  1 373  1 84603   0.25 0.0
  1 374  1 84604  1 375  1 84604   0.25 0.0
  1 375  1 84454  1 84605  1 84606   0.166666666667 0.166666666667
  1 375  1 84455  1 345  1 84455   0.25 0.0
  1 375  1 84605  1 374  1 84605   0.25 0.0
  1 375  1 84606  1 84454  1 84455   0.166666666667 0.166666666667
  1 389  1 84547  1 361  1 84547   0.25 0.0
  1 389  1 84548  1 412  1 84548   0.25 0.0
  1 391  1 84390  1 390  1 84390   0.25 0.0
  1 391  1 84393  1 392  1 84393   0.25 0.0
  1 392  1 84394  1 391  1 84394   0.25 0.0
  1 392  1 84397  1 393  1 84397   0.25 0.0
  1 393  1 84398  1 392  1 84398   0.25 0.0
  1 393  1 84401  1 394  1 84401   0.25 0.0
  1 394  1 84402  1 393  1 84402   0.25 0.0
  1 394  1 84405  1 395  1 84405   0.25 0.0
  1 395  1 84406  1 394  1 84406   0.25 0.0
  1 395  1 84409  1 396  1 84409   0.25 0.0
  1 395  1 98032  1 394  1 98032   0.25 0.0
  1 395  1 98033  1 396  1 98033   0.25 0.0
  1 396  1 69724  1 84680  1 84681   0.166666666667 0.166666666667
  1 396  1 69725  1 84410  1 84412   0.166666666667 0.166666666667
  1 396  1 84410  1 395  1 84410   0.25 0.0
  1 396  1 84412  1 69724  1 69725   0.166666666667 0.166666666667
  1 396  1 84680  1 395  1 84680   0.25 0.0
  1 396  1 84681  1 69724  1 69725   0.166666666667 0.166666666667
  1 397  1 84428  1 84558  1 84559   0.166666666667 0.166666666667
  1 397  1 84430  1 84560  1 84561   0.166666666667 0.166666666667
  1 397  1 84558  1 84428  1 84430   0.166666666667 0.166666666667
  1 397  1 84559  1 418  1 84559   0.25 0.0
  1 397  1 84560  1 418  1 84560   0.25 0.0
  1 397  1 84561  1 84428  1 84430   0.166666666667 0.166666666667
  1 412  1 84677  1 389  1 84677   0.25 0.0
  1 412  1 84678  1 437  1 84678   0.25 0.0
  1 417  1 98031  1 98184  1 98185   0.166666666667 0.166666666667
  1 417  1 98032  1 394  1 98032   0.25 0.0
  1 417  1 98184  1 416  1 98184   0.25 0.0
  1 417  1 98185  1 98031  1 98032   0.166666666667 0.166666666667
  1 418  1 70366  1 397  1 70366   0.25 0.0
  1 418  1 70367  1 442  1 70367   0.25 0.0
  1 419  1 84560  1 418  1 84560   0.25 0.0
  1 419  1 84563  1 84697  1 84698   0.166666666667 0.166666666667
  1 419  1 84697  1 443  1 84697   0.25 0.0
  1 419  1 84698  1 84560  1 84563   0.166666666667 0.166666666667
  1 420  1 84622  1 84937  1 84938   0.166666666667 0.166666666667
  1 420  1 84625  1 421  1 84625   0.25 0.0
  1 420  1 84937  1 84622  1 84625   0.166666666667 0.166666666667
  1 420  1 84938  1 98216  1 98217   0.166666666667 0.166666666667
  1 420  1 98216  1 84937  1 84938   0.166666666667 0.166666666667
  1 420  1 98217  1 421  1 98217   0.25 0.0
  1 421  1 67200  1 98220  1 98221   0.166666666667 0.166666666667
  1 421  1 67201  1 84626  1 84628   0.166666666667 0.166666666667
  1 421  1 84626  1 420  1 84626   0.25 0.0
  1 421  1 84628  1 67200  1 67201   0.166666666667 0.166666666667
  1 421  1 98220  1 420  1 98220   0.25 0.0
  1 421  1 98221  1 67200  1 67201   0.166666666667 0.166666666667
  1 437  1 84999  1 412  1 84999   0.25 0.0
  1 437  1 85000  1 461  1 85000   0.25 0.0
  1 441  1 98183  1 465  1 98183   0.25 0.0
  1 441  1 98184  1 416  1 98184   0.25 0.0
  1 442  1 70368  1 418  1 70368   0.25 0.0
  1 442  1 70369  1 466  1 70369   0.25 0.0
  1 444  1 84697  1 443  1 84697   0.25 0.0
  1 444  1 84700  1 85026  1 85027   0.166666666667 0.166666666667
  1 444  1 85026  1 468  1 85026   0.25 0.0
  1 444  1 85027  1 84697  1 84700   0.166666666667 0.166666666667
  1 445  1 67200  1 98221  1 98222   0.166666666667 0.166666666667
  1 445  1 67202  1 85118  1 85119   0.166666666667 0.166666666667
  1 445  1 85118  1 85279  1 85280   0.166666666667 0.166666666667
  1 445  1 85119  1 67200  1 67202   0.166666666667 0.166666666667
  1 445  1 85279  1 98221  1 98222   0.166666666667 0.166666666667
  1 445  1 85280  1 85118  1 85119   0.166666666667 0.166666666667
  1 445  1 98221  1 67200  1 67202   0.166666666667 0.166666666667
  1 445  1 98222  1 85279  1 85280   0.166666666667 0.166666666667
  1 461  1 85164  1 437  1 85164   0.25 0.0
  1 461  1 85165  1 495  1 85165   0.25 0.0
  1 465  1 85166  1 499  1 85166   0.25 0.0
  1 465  1 85167  1 441  1 85167   0.25 0.0
  1 466  1 70370  1 442  1 70370   0.25 0.0
  1 466  1 70371  1 85344  1 85345   0.166666666667 0.166666666667
  1 466  1 85344  1 70370  1 70371   0.166666666667 0.166666666667
  1 466  1 85345  1 467  1 85345   0.25 0.0
  1 469  1 85026  1 468  1 85026   0.25 0.0
  1 469  1 85029  1 470  1 85029   0.25 0.0
  1 470  1 45928  1 469  1 45928   0.25 0.0
  1 470  1 45930  1 85180  1 85181   0.166666666667 0.166666666667
  1 470  1 85180  1 503  1 85180   0.25 0.0
  1 470  1 85181  1 45928  1 45930   0.166666666667 0.166666666667
  1 471  1 85065  1 85208  1 85209   0.166666666667 0.166666666667
  1 471  1 85068  1 472  1 85068   0.25 0.0
  1 471  1 85208  1 85065  1 85068   0.166666666667 0.166666666667
  1 471  1 85209  1 85369  1 85370   0.166666666667 0.166666666667
  1 471  1 85369  1 85208  1 85209   0.166666666667 0.166666666667
  1 471  1 85370  1 472  1 85370   0.25 0.0
  1 472  1 85069  1 471  1 85069   0.25 0.0
  1 472  1 85072  1 473  1 85072   0.25 0.0
  1 472  1 85373  1 471  1 85373   0.25 0.0
  1 472  1 85374  1 473  1 85374   0.25 0.0
  1 473  1 85073  1 472  1 85073   0.25 0.0
  1 473  1 85076  1 474  1 85076   0.25 0.0
  1 473  1 85376  1 472  1 85376   0.25 0.0
  1 473  1 85377  1 474  1 85377   0.25 0.0
  1 474  1 85077  1 473  1 85077   0.25 0.0
  1 474  1 85080  1 475  1 85080   0.25 0.0
  1 474  1 85378  1 473  1 85378   0.25 0.0
  1 474  1 85379  1 475  1 85379   0.25 0.0
  1 475  1 85081  1 474  1 85081   0.25 0.0
  1 475  1 85084  1 476  1 85084   0.25 0.0
  1 476  1 85085  1 475  1 85085   0.25 0.0
  1 476  1 85088  1 477  1 85088   0.25 0.0
  1 477  1 85089  1 476  1 85089   0.25 0.0
  1 477  1 85092  1 478  1 85092   0.25 0.0
  1 478  1 85093  1 477  1 85093   0.25 0.0
  1 478  1 85096  1 479  1 85096   0.25 0.0
  1 479  1 85097  1 478  1 85097   0.25 0.0
  1 479  1 85100  1 98279  1 98280   0.166666666667 0.166666666667
  1 479  1 98279  1 509  1 98279   0.25 0.0
  1 479  1 98280  1 85097  1 85100   0.166666666667 0.166666666667
  1 495  1 85320  1 461  1 85320   0.25 0.0
  1 495  1 85321  1 528  1 85321   0.25 0.0
  1 499  1 85322  1 532  1 85322   0.25 0.0
  1 499  1 85323  1 465  1 85323   0.25 0.0
  1 500  1 85345  1 467  1 85345   0.25 0.0
  1 500  1 85346  1 533  1 85346   0.25 0.0
  1 504  1 85180  1 503  1 85180   0.25 0.0
  1 504  1 85182  1 85347  1 85348   0.166666666667 0.166666666667
  1 504  1 85347  1 537  1 85347   0.25 0.0
  1 504  1 85348  1 85180  1 85182   0.166666666667 0.166666666667
  1 505  1 85379  1 475  1 85379   0.25 0.0
  1 505  1 85380  1 85485  1 85486   0.166666666667 0.166666666667
  1 505  1 85485  1 85379  1 85380   0.166666666667 0.166666666667
  1 505  1 85486  1 506  1 85486   0.25 0.0
  1 510  1 85381  1 543  1 85381   0.25 0.0
  1 510  1 85382  1 98279  1 98282   0.166666666667 0.166666666667
  1 510  1 98279  1 509  1 98279   0.25 0.0
  1 510  1 98282  1 85381  1 85382   0.166666666667 0.166666666667
  1 528  1 85413  1 495  1 85413   0.25 0.0
  1 528  1 85414  1 565  1 85414   0.25 0.0
  1 532  1 85415  1 569  1 85415   0.25 0.0
  1 532  1 85416  1 499  1 85416   0.25 0.0
  1 533  1 85445  1 500  1 85445   0.25 0.0
  1 533  1 85446  1 98477  1 98478   0.166666666667 0.166666666667
  1 533  1 98477  1 85445  1 85446   0.166666666667 0.166666666667
  1 533  1 98478  1 534  1 98478   0.25 0.0
  1 538  1 85347  1 537  1 85347   0.25 0.0
  1 538  1 85349  1 85447  1 85448   0.166666666667 0.166666666667
  1 538  1 85447  1 574  1 85447   0.25 0.0
  1 538  1 85448  1 85347  1 85349   0.166666666667 0.166666666667
  1 539  1 85486  1 506  1 85486   0.25 0.0
  1 539  1 85487  1 575  1 85487   0.25 0.0
  1 544  1 85381  1 543  1 85381   0.25 0.0
  1 544  1 85384  1 545  1 85384   0.25 0.0
  1 545  1 85385  1 544  1 85385   0.25 0.0
  1 545  1 85388  1 546  1 85388   0.25 0.0
  1 546  1 85389  1 545  1 85389   0.25 0.0
  1 546  1 85391  1 547  1 85391   0.25 0.0
  1 547  1 85392  1 546  1 85392   0.25 0.0
  1 547  1 85393  1 98442  1 98443   0.166666666667 0.166666666667
  1 547  1 98442  1 583  1 98442   0.25 0.0
  1 547  1 98443  1 85392  1 85393   0.166666666667 0.166666666667
  1 565  1 85513  1 528  1 85513   0.25 0.0
  1 565  1 85514  1 602  1 85514   0.25 0.0
  1 569  1 85515  1 606  1 85515   0.25 0.0
  1 569  1 85516  1 532  1 85516   0.25 0.0
  1 570  1 85651  1 98478  1 98479   0.166666666667 0.166666666667
  1 570  1 85652  1 571  1 85652   0.25 0.0
  1 570  1 98478  1 534  1 98478   0.25 0.0
  1 570  1 98479  1 85651  1 85652   0.166666666667 0.166666666667
  1 571  1 85655  1 570  1 85655   0.25 0.0
  1 571  1 85656  1 572  1 85656   0.25 0.0
  1 574  1 85554  1 609  1 85554   0.25 0.0
  1 574  1 85555  1 538  1 85555   0.25 0.0
  1 575  1 19600  1 539  1 19600   0.25 0.0
  1 575  1 19601  1 610  1 19601   0.25 0.0
  1 584  1 85560  1 619  1 85560   0.25 0.0
  1 584  1 85561  1 98442  1 98445   0.166666666667 0.166666666667
  1 584  1 98442  1 583  1 98442   0.25 0.0
  1 584  1 98445  1 85560  1 85561   0.166666666667 0.166666666667
  1 602  1 85582  1 565  1 85582   0.25 0.0
  1 602  1 85583  1 637  1 85583   0.25 0.0
  1 606  1 85584  1 641  1 85584   0.25 0.0
  1 606  1 85585  1 569  1 85585   0.25 0.0
  1 607  1 85656  1 572  1 85656   0.25 0.0
  1 607  1 85657  1 85798  1 85799   0.166666666667 0.166666666667
  1 607  1 85798  1 85656  1 85657   0.166666666667 0.166666666667
  1 607  1 85799  1 608  1 85799   0.25 0.0
  1 608  1 98587  1 607  1 98587   0.25 0.0
  1 608  1 98588  1 609  1 98588   0.25 0.0
  1 609  1 85658  1 98591  1 98592   0.166666666667 0.166666666667
  1 609  1 85659  1 574  1 85659   0.25 0.0
  1 609  1 98591  1 608  1 98591   0.25 0.0
  1 609  1 98592  1 85658  1 85659   0.166666666667 0.166666666667
  1 610  1 20181  1 575  1 20181   0.25 0.0
  1 610  1 20182  1 85836  1 85837   0.166666666667 0.166666666667
  1 610  1 85836  1 20181  1 20182   0.166666666667 0.166666666667
  1 610  1 85837  1 611  1 85837   0.25 0.0
  1 619  1 85669  1 98611  1 98612   0.166666666667 0.166666666667
  1 619  1 85670  1 584  1 85670   0.25 0.0
  1 619  1 98611  1 618  1 98611   0.25 0.0
  1 619  1 98612  1 85669  1 85670   0.166666666667 0.166666666667
  1 637  1 46787  1 602  1 46787   0.25 0.0
  1 637  1 46788  1 667  1 46788   0.25 0.0
  1 641  1 85701  1 671  1 85701   0.25 0.0
  1 641  1 85702  1 606  1 85702   0.25 0.0
  1 642  1 85837  1 611  1 85837   0.25 0.0
  1 642  1 85838  1 86017  1 86018   0.166666666667 0.166666666667
  1 642  1 86017  1 85837  1 85838   0.166666666667 0.166666666667
  1 642  1 86018  1 643  1 86018   0.25 0.0
  1 643  1 98723  1 642  1 98723   0.25 0.0
  1 643  1 98724  1 644  1 98724   0.25 0.0
  1 649  1 98610  1 679  1 98610   0.25 0.0
  1 649  1 98611  1 618  1 98611   0.25 0.0
  1 667  1 46789  1 637  1 46789   0.25 0.0
  1 667  1 46790  1 698  1 46790   0.25 0.0
  1 670  1 98743  1 669  1 98743   0.25 0.0
  1 670  1 98744  1 671  1 98744   0.25 0.0
  1 671  1 98747  1 670  1 98747   0.25 0.0
  1 671  1 98748  1 672  1 98748   0.25 0.0
  1 672  1 85701  1 671  1 85701   0.25 0.0
  1 672  1 85703  1 85864  1 85865   0.166666666667 0.166666666667
  1 672  1 85864  1 98751  1 98752   0.166666666667 0.166666666667
  1 672  1 85865  1 85701  1 85703   0.166666666667 0.166666666667
  1 672  1 98751  1 671  1 98751   0.25 0.0
  1 672  1 98752  1 85864  1 85865   0.166666666667 0.166666666667
  1 673  1 85731  1 85871  1 85872   0.166666666667 0.166666666667
  1 673  1 85734  1 85873  1 85874   0.166666666667 0.166666666667
  1 673  1 85871  1 85731  1 85734   0.166666666667 0.166666666667
  1 673  1 85872  1 98767  1 98768   0.166666666667 0.166666666667
  1 673  1 85873  1 98767  1 98768   0.166666666667 0.166666666667
  1 673  1 85874  1 85731  1 85734   0.166666666667 0.166666666667
  1 673  1 98767  1 85871  1 85872   0.166666666667 0.166666666667
  1 673  1 98768  1 85873  1 85874   0.166666666667 0.166666666667
  1 674  1 86167  1 98724  1 98725   0.166666666667 0.166666666667
  1 674  1 86168  1 675  1 86168   0.25 0.0
  1 674  1 98724  1 644  1 98724   0.25 0.0
  1 674  1 98725  1 86167  1 86168   0.166666666667 0.166666666667
  1 679  1 86020  1 705  1 86020   0.25 0.0
  1 679  1 86021  1 649  1 86021   0.25 0.0
  1 698  1 46791  1 667  1 46791   0.25 0.0
  1 698  1 46792  1 724  1 46792   0.25 0.0
  1 700  1 86185  1 699  1 86185   0.25 0.0
  1 700  1 86186  1 98742  1 98743   0.166666666667 0.166666666667
  1 700  1 98742  1 86185  1 86186   0.166666666667 0.166666666667
  1 700  1 98743  1 669  1 98743   0.25 0.0
  1 701  1 86168  1 675  1 86168   0.25 0.0
  1 701  1 86169  1 86502  1 86503   0.166666666667 0.166666666667
  1 701  1 86502  1 86168  1 86169   0.166666666667 0.166666666667
  1 701  1 86503  1 702  1 86503   0.25 0.0
  1 702  1 99006  1 701  1 99006   0.25 0.0
  1 702  1 99007  1 703  1 99007   0.25 0.0
  1 705  1 86170  1 728  1 86170   0.25 0.0
  1 705  1 86171  1 679  1 86171   0.25 0.0
  1 724  1 46793  1 698  1 46793   0.25 0.0
  1 724  1 46794  1 86530  1 86531   0.166666666667 0.166666666667
  1 724  1 86530  1 46793  1 46794   0.166666666667 0.166666666667
  1 724  1 86531  1 725  1 86531   0.25 0.0
  1 725  1 86184  1 747  1 86184   0.25 0.0
  1 725  1 86185  1 699  1 86185   0.25 0.0
  1 726  1 86691  1 99007  1 99008   0.166666666667 0.166666666667
  1 726  1 86692  1 727  1 86692   0.25 0.0
  1 726  1 99007  1 703  1 99007   0.25 0.0
  1 726  1 99008  1 86691  1 86692   0.166666666667 0.166666666667